[VMEM] WARNING: physical memory size is smaller than virtual memory size.
WARNING: option --warmup_instructions is deprecated. Use --warmup-instructions instead.
WARNING: option --simulation_instructions is deprecated. Use --simulation-instructions instead.

*** ChampSim Multicore Out-of-Order Simulator ***
Warmup Instructions: 200000000
Simulation Instructions: 1000000000
Number of CPUs: 1
Page size: 4096

Initialize SIGNATURE TABLE
ST_SET: 1
ST_WAY: 256
ST_TAG_BIT: 16

Initialize PATTERN TABLE
PT_SET: 512
PT_WAY: 4
SIG_DELTA_BIT: 7
C_SIG_BIT: 4
C_DELTA_BIT: 4

Initialize PREFETCH FILTER
FILTER_SET: 1024
Off-chip DRAM Size: 16 GiB Channels: 1 Width: 64-bit Data Rate: 3205 MT/s
Heartbeat CPU 0 instructions: 10000001 cycles: 2944917 heartbeat IPC: 3.396 cumulative IPC: 3.396 (Simulation time: 00 hr 01 min 12 sec)
Heartbeat CPU 0 instructions: 20000002 cycles: 5896332 heartbeat IPC: 3.388 cumulative IPC: 3.392 (Simulation time: 00 hr 02 min 25 sec)
Heartbeat CPU 0 instructions: 30000002 cycles: 8835687 heartbeat IPC: 3.402 cumulative IPC: 3.395 (Simulation time: 00 hr 03 min 37 sec)
Heartbeat CPU 0 instructions: 40000002 cycles: 11777739 heartbeat IPC: 3.399 cumulative IPC: 3.396 (Simulation time: 00 hr 04 min 49 sec)
Heartbeat CPU 0 instructions: 50000002 cycles: 14722318 heartbeat IPC: 3.396 cumulative IPC: 3.396 (Simulation time: 00 hr 06 min 02 sec)
Heartbeat CPU 0 instructions: 60000006 cycles: 17565087 heartbeat IPC: 3.518 cumulative IPC: 3.416 (Simulation time: 00 hr 07 min 16 sec)
Heartbeat CPU 0 instructions: 70000006 cycles: 20371658 heartbeat IPC: 3.563 cumulative IPC: 3.436 (Simulation time: 00 hr 08 min 30 sec)
Heartbeat CPU 0 instructions: 80000006 cycles: 23180468 heartbeat IPC: 3.56 cumulative IPC: 3.451 (Simulation time: 00 hr 09 min 45 sec)
Heartbeat CPU 0 instructions: 90000007 cycles: 25990018 heartbeat IPC: 3.559 cumulative IPC: 3.463 (Simulation time: 00 hr 11 min 00 sec)
Heartbeat CPU 0 instructions: 100000008 cycles: 28799235 heartbeat IPC: 3.56 cumulative IPC: 3.472 (Simulation time: 00 hr 12 min 14 sec)
Heartbeat CPU 0 instructions: 110000010 cycles: 31608328 heartbeat IPC: 3.56 cumulative IPC: 3.48 (Simulation time: 00 hr 13 min 28 sec)
Heartbeat CPU 0 instructions: 120000012 cycles: 34414594 heartbeat IPC: 3.563 cumulative IPC: 3.487 (Simulation time: 00 hr 14 min 43 sec)
Heartbeat CPU 0 instructions: 130000014 cycles: 37224581 heartbeat IPC: 3.559 cumulative IPC: 3.492 (Simulation time: 00 hr 15 min 58 sec)
Heartbeat CPU 0 instructions: 140000017 cycles: 40035146 heartbeat IPC: 3.558 cumulative IPC: 3.497 (Simulation time: 00 hr 17 min 13 sec)
Heartbeat CPU 0 instructions: 150000019 cycles: 42823508 heartbeat IPC: 3.586 cumulative IPC: 3.503 (Simulation time: 00 hr 18 min 28 sec)
Heartbeat CPU 0 instructions: 160000023 cycles: 45576753 heartbeat IPC: 3.632 cumulative IPC: 3.511 (Simulation time: 00 hr 19 min 42 sec)
Heartbeat CPU 0 instructions: 170000025 cycles: 48327452 heartbeat IPC: 3.635 cumulative IPC: 3.518 (Simulation time: 00 hr 20 min 56 sec)
Heartbeat CPU 0 instructions: 180000029 cycles: 51078418 heartbeat IPC: 3.635 cumulative IPC: 3.524 (Simulation time: 00 hr 22 min 11 sec)
Heartbeat CPU 0 instructions: 190000029 cycles: 53829600 heartbeat IPC: 3.635 cumulative IPC: 3.53 (Simulation time: 00 hr 23 min 25 sec)
Warmup finished CPU 0 instructions: 200000004 cycles: 56580572 cumulative IPC: 3.535 (Simulation time: 00 hr 24 min 40 sec)
Warmup complete CPU 0 instructions: 200000004 cycles: 56580572 cumulative IPC: 3.535 (Simulation time: 00 hr 24 min 40 sec)
Heartbeat CPU 0 instructions: 200000029 cycles: 56580577 heartbeat IPC: 3.635 cumulative IPC: 5 (Simulation time: 00 hr 24 min 40 sec)
Heartbeat CPU 0 instructions: 210000029 cycles: 61882023 heartbeat IPC: 1.886 cumulative IPC: 1.886 (Simulation time: 00 hr 26 min 23 sec)
Heartbeat CPU 0 instructions: 220000031 cycles: 67265663 heartbeat IPC: 1.857 cumulative IPC: 1.872 (Simulation time: 00 hr 28 min 07 sec)
Heartbeat CPU 0 instructions: 230000034 cycles: 72616297 heartbeat IPC: 1.869 cumulative IPC: 1.871 (Simulation time: 00 hr 29 min 50 sec)
Heartbeat CPU 0 instructions: 240000034 cycles: 78087083 heartbeat IPC: 1.828 cumulative IPC: 1.86 (Simulation time: 00 hr 31 min 35 sec)
Heartbeat CPU 0 instructions: 250000034 cycles: 83380390 heartbeat IPC: 1.889 cumulative IPC: 1.866 (Simulation time: 00 hr 33 min 16 sec)
Heartbeat CPU 0 instructions: 260000037 cycles: 88712003 heartbeat IPC: 1.876 cumulative IPC: 1.867 (Simulation time: 00 hr 34 min 57 sec)
Heartbeat CPU 0 instructions: 270000041 cycles: 94000154 heartbeat IPC: 1.891 cumulative IPC: 1.871 (Simulation time: 00 hr 36 min 41 sec)
Heartbeat CPU 0 instructions: 280000041 cycles: 99328728 heartbeat IPC: 1.877 cumulative IPC: 1.871 (Simulation time: 00 hr 38 min 21 sec)
Heartbeat CPU 0 instructions: 290000041 cycles: 104660417 heartbeat IPC: 1.876 cumulative IPC: 1.872 (Simulation time: 00 hr 40 min 00 sec)
Heartbeat CPU 0 instructions: 300000041 cycles: 109990591 heartbeat IPC: 1.876 cumulative IPC: 1.872 (Simulation time: 00 hr 41 min 40 sec)
Heartbeat CPU 0 instructions: 310000045 cycles: 115339907 heartbeat IPC: 1.869 cumulative IPC: 1.872 (Simulation time: 00 hr 43 min 20 sec)
Heartbeat CPU 0 instructions: 320000048 cycles: 120653090 heartbeat IPC: 1.882 cumulative IPC: 1.873 (Simulation time: 00 hr 44 min 59 sec)
Heartbeat CPU 0 instructions: 330000049 cycles: 125946572 heartbeat IPC: 1.889 cumulative IPC: 1.874 (Simulation time: 00 hr 46 min 39 sec)
Heartbeat CPU 0 instructions: 340000051 cycles: 131362672 heartbeat IPC: 1.846 cumulative IPC: 1.872 (Simulation time: 00 hr 48 min 20 sec)
Heartbeat CPU 0 instructions: 350000052 cycles: 136668694 heartbeat IPC: 1.885 cumulative IPC: 1.873 (Simulation time: 00 hr 49 min 59 sec)
Heartbeat CPU 0 instructions: 360000056 cycles: 141967591 heartbeat IPC: 1.887 cumulative IPC: 1.874 (Simulation time: 00 hr 51 min 38 sec)
Heartbeat CPU 0 instructions: 370000056 cycles: 147247080 heartbeat IPC: 1.894 cumulative IPC: 1.875 (Simulation time: 00 hr 53 min 17 sec)
Heartbeat CPU 0 instructions: 380000057 cycles: 152570922 heartbeat IPC: 1.878 cumulative IPC: 1.875 (Simulation time: 00 hr 54 min 57 sec)
Heartbeat CPU 0 instructions: 390000057 cycles: 157908426 heartbeat IPC: 1.874 cumulative IPC: 1.875 (Simulation time: 00 hr 56 min 37 sec)
Heartbeat CPU 0 instructions: 400000057 cycles: 163222636 heartbeat IPC: 1.882 cumulative IPC: 1.875 (Simulation time: 00 hr 58 min 17 sec)
Heartbeat CPU 0 instructions: 410000059 cycles: 168483811 heartbeat IPC: 1.901 cumulative IPC: 1.877 (Simulation time: 00 hr 59 min 56 sec)
Heartbeat CPU 0 instructions: 420000061 cycles: 173733791 heartbeat IPC: 1.905 cumulative IPC: 1.878 (Simulation time: 01 hr 01 min 34 sec)
Heartbeat CPU 0 instructions: 430000062 cycles: 179132445 heartbeat IPC: 1.852 cumulative IPC: 1.877 (Simulation time: 01 hr 03 min 15 sec)
Heartbeat CPU 0 instructions: 440000062 cycles: 184442719 heartbeat IPC: 1.883 cumulative IPC: 1.877 (Simulation time: 01 hr 04 min 54 sec)
Heartbeat CPU 0 instructions: 450000063 cycles: 189769666 heartbeat IPC: 1.877 cumulative IPC: 1.877 (Simulation time: 01 hr 06 min 34 sec)
Heartbeat CPU 0 instructions: 460000067 cycles: 195040115 heartbeat IPC: 1.897 cumulative IPC: 1.878 (Simulation time: 01 hr 08 min 13 sec)
Heartbeat CPU 0 instructions: 470000069 cycles: 200283184 heartbeat IPC: 1.907 cumulative IPC: 1.879 (Simulation time: 01 hr 09 min 52 sec)
Heartbeat CPU 0 instructions: 480000069 cycles: 205571579 heartbeat IPC: 1.891 cumulative IPC: 1.879 (Simulation time: 01 hr 11 min 35 sec)
Heartbeat CPU 0 instructions: 490000069 cycles: 210918558 heartbeat IPC: 1.87 cumulative IPC: 1.879 (Simulation time: 01 hr 13 min 14 sec)
Heartbeat CPU 0 instructions: 500000070 cycles: 216213239 heartbeat IPC: 1.889 cumulative IPC: 1.879 (Simulation time: 01 hr 14 min 54 sec)
Heartbeat CPU 0 instructions: 510000071 cycles: 221538637 heartbeat IPC: 1.878 cumulative IPC: 1.879 (Simulation time: 01 hr 16 min 33 sec)
Heartbeat CPU 0 instructions: 520000071 cycles: 227033090 heartbeat IPC: 1.82 cumulative IPC: 1.877 (Simulation time: 01 hr 18 min 15 sec)
Heartbeat CPU 0 instructions: 530000071 cycles: 232353822 heartbeat IPC: 1.879 cumulative IPC: 1.877 (Simulation time: 01 hr 19 min 54 sec)
Heartbeat CPU 0 instructions: 540000071 cycles: 237636156 heartbeat IPC: 1.893 cumulative IPC: 1.878 (Simulation time: 01 hr 21 min 33 sec)
Heartbeat CPU 0 instructions: 550000071 cycles: 242917102 heartbeat IPC: 1.894 cumulative IPC: 1.878 (Simulation time: 01 hr 23 min 12 sec)
Heartbeat CPU 0 instructions: 560000071 cycles: 248240038 heartbeat IPC: 1.879 cumulative IPC: 1.878 (Simulation time: 01 hr 24 min 52 sec)
Heartbeat CPU 0 instructions: 570000073 cycles: 253570673 heartbeat IPC: 1.876 cumulative IPC: 1.878 (Simulation time: 01 hr 26 min 31 sec)
Heartbeat CPU 0 instructions: 580000074 cycles: 258926265 heartbeat IPC: 1.867 cumulative IPC: 1.878 (Simulation time: 01 hr 28 min 11 sec)
Heartbeat CPU 0 instructions: 590000074 cycles: 264232981 heartbeat IPC: 1.884 cumulative IPC: 1.878 (Simulation time: 01 hr 29 min 50 sec)
Heartbeat CPU 0 instructions: 600000075 cycles: 269594728 heartbeat IPC: 1.865 cumulative IPC: 1.878 (Simulation time: 01 hr 31 min 30 sec)
Heartbeat CPU 0 instructions: 610000076 cycles: 274916762 heartbeat IPC: 1.879 cumulative IPC: 1.878 (Simulation time: 01 hr 33 min 10 sec)
Heartbeat CPU 0 instructions: 620000079 cycles: 280323056 heartbeat IPC: 1.85 cumulative IPC: 1.877 (Simulation time: 01 hr 34 min 50 sec)
Heartbeat CPU 0 instructions: 630000081 cycles: 285662578 heartbeat IPC: 1.873 cumulative IPC: 1.877 (Simulation time: 01 hr 36 min 30 sec)
Heartbeat CPU 0 instructions: 640000085 cycles: 290962855 heartbeat IPC: 1.887 cumulative IPC: 1.877 (Simulation time: 01 hr 38 min 11 sec)
Heartbeat CPU 0 instructions: 650000085 cycles: 296309922 heartbeat IPC: 1.87 cumulative IPC: 1.877 (Simulation time: 01 hr 39 min 51 sec)
Heartbeat CPU 0 instructions: 660000086 cycles: 301574636 heartbeat IPC: 1.899 cumulative IPC: 1.878 (Simulation time: 01 hr 41 min 30 sec)
Heartbeat CPU 0 instructions: 670000088 cycles: 306891746 heartbeat IPC: 1.881 cumulative IPC: 1.878 (Simulation time: 01 hr 43 min 09 sec)
Heartbeat CPU 0 instructions: 680000089 cycles: 312195891 heartbeat IPC: 1.885 cumulative IPC: 1.878 (Simulation time: 01 hr 44 min 48 sec)
Heartbeat CPU 0 instructions: 690000092 cycles: 317483942 heartbeat IPC: 1.891 cumulative IPC: 1.878 (Simulation time: 01 hr 46 min 30 sec)
Heartbeat CPU 0 instructions: 700000092 cycles: 322783024 heartbeat IPC: 1.887 cumulative IPC: 1.878 (Simulation time: 01 hr 48 min 10 sec)
Heartbeat CPU 0 instructions: 710000092 cycles: 328210268 heartbeat IPC: 1.843 cumulative IPC: 1.878 (Simulation time: 01 hr 49 min 50 sec)
Heartbeat CPU 0 instructions: 720000093 cycles: 333562884 heartbeat IPC: 1.868 cumulative IPC: 1.877 (Simulation time: 01 hr 51 min 29 sec)
Heartbeat CPU 0 instructions: 730000093 cycles: 338931416 heartbeat IPC: 1.863 cumulative IPC: 1.877 (Simulation time: 01 hr 53 min 09 sec)
Heartbeat CPU 0 instructions: 740000094 cycles: 344266827 heartbeat IPC: 1.874 cumulative IPC: 1.877 (Simulation time: 01 hr 54 min 48 sec)
Heartbeat CPU 0 instructions: 750000095 cycles: 349550932 heartbeat IPC: 1.892 cumulative IPC: 1.877 (Simulation time: 01 hr 56 min 26 sec)
Heartbeat CPU 0 instructions: 760000095 cycles: 354827680 heartbeat IPC: 1.895 cumulative IPC: 1.878 (Simulation time: 01 hr 58 min 05 sec)
Heartbeat CPU 0 instructions: 770000099 cycles: 360118148 heartbeat IPC: 1.89 cumulative IPC: 1.878 (Simulation time: 01 hr 59 min 44 sec)
Heartbeat CPU 0 instructions: 780000102 cycles: 365465185 heartbeat IPC: 1.87 cumulative IPC: 1.878 (Simulation time: 02 hr 01 min 23 sec)
Heartbeat CPU 0 instructions: 790000106 cycles: 370767022 heartbeat IPC: 1.886 cumulative IPC: 1.878 (Simulation time: 02 hr 03 min 02 sec)
Heartbeat CPU 0 instructions: 800000108 cycles: 376215485 heartbeat IPC: 1.835 cumulative IPC: 1.877 (Simulation time: 02 hr 04 min 44 sec)
Heartbeat CPU 0 instructions: 810000110 cycles: 381557515 heartbeat IPC: 1.872 cumulative IPC: 1.877 (Simulation time: 02 hr 06 min 30 sec)
Heartbeat CPU 0 instructions: 820000111 cycles: 386847720 heartbeat IPC: 1.89 cumulative IPC: 1.877 (Simulation time: 02 hr 08 min 11 sec)
Heartbeat CPU 0 instructions: 830000113 cycles: 392150451 heartbeat IPC: 1.886 cumulative IPC: 1.877 (Simulation time: 02 hr 09 min 54 sec)
Heartbeat CPU 0 instructions: 840000113 cycles: 397480948 heartbeat IPC: 1.876 cumulative IPC: 1.877 (Simulation time: 02 hr 11 min 34 sec)
Heartbeat CPU 0 instructions: 850000114 cycles: 402820276 heartbeat IPC: 1.873 cumulative IPC: 1.877 (Simulation time: 02 hr 13 min 13 sec)
Heartbeat CPU 0 instructions: 860000118 cycles: 408184560 heartbeat IPC: 1.864 cumulative IPC: 1.877 (Simulation time: 02 hr 14 min 52 sec)
Heartbeat CPU 0 instructions: 870000121 cycles: 413537090 heartbeat IPC: 1.868 cumulative IPC: 1.877 (Simulation time: 02 hr 16 min 34 sec)
Heartbeat CPU 0 instructions: 880000121 cycles: 418870859 heartbeat IPC: 1.875 cumulative IPC: 1.877 (Simulation time: 02 hr 18 min 14 sec)
Heartbeat CPU 0 instructions: 890000121 cycles: 424192936 heartbeat IPC: 1.879 cumulative IPC: 1.877 (Simulation time: 02 hr 19 min 53 sec)
Heartbeat CPU 0 instructions: 900000122 cycles: 429542315 heartbeat IPC: 1.869 cumulative IPC: 1.877 (Simulation time: 02 hr 21 min 33 sec)
Heartbeat CPU 0 instructions: 910000123 cycles: 434847575 heartbeat IPC: 1.885 cumulative IPC: 1.877 (Simulation time: 02 hr 23 min 12 sec)
Heartbeat CPU 0 instructions: 920000125 cycles: 440178589 heartbeat IPC: 1.876 cumulative IPC: 1.877 (Simulation time: 02 hr 24 min 52 sec)
Heartbeat CPU 0 instructions: 930000128 cycles: 445508387 heartbeat IPC: 1.876 cumulative IPC: 1.877 (Simulation time: 02 hr 26 min 30 sec)
Heartbeat CPU 0 instructions: 940000131 cycles: 450846558 heartbeat IPC: 1.873 cumulative IPC: 1.877 (Simulation time: 02 hr 28 min 09 sec)
Heartbeat CPU 0 instructions: 950000132 cycles: 456182809 heartbeat IPC: 1.874 cumulative IPC: 1.877 (Simulation time: 02 hr 29 min 49 sec)
Heartbeat CPU 0 instructions: 960000134 cycles: 461525765 heartbeat IPC: 1.872 cumulative IPC: 1.877 (Simulation time: 02 hr 31 min 28 sec)
Heartbeat CPU 0 instructions: 970000137 cycles: 466810285 heartbeat IPC: 1.892 cumulative IPC: 1.877 (Simulation time: 02 hr 33 min 07 sec)
Heartbeat CPU 0 instructions: 980000141 cycles: 472124791 heartbeat IPC: 1.882 cumulative IPC: 1.877 (Simulation time: 02 hr 34 min 47 sec)
Heartbeat CPU 0 instructions: 990000143 cycles: 477591499 heartbeat IPC: 1.829 cumulative IPC: 1.876 (Simulation time: 02 hr 36 min 28 sec)
Heartbeat CPU 0 instructions: 1000000146 cycles: 482893202 heartbeat IPC: 1.886 cumulative IPC: 1.877 (Simulation time: 02 hr 38 min 08 sec)
Heartbeat CPU 0 instructions: 1010000147 cycles: 488198401 heartbeat IPC: 1.885 cumulative IPC: 1.877 (Simulation time: 02 hr 39 min 47 sec)
Heartbeat CPU 0 instructions: 1020000149 cycles: 493519846 heartbeat IPC: 1.879 cumulative IPC: 1.877 (Simulation time: 02 hr 41 min 26 sec)
Heartbeat CPU 0 instructions: 1030000149 cycles: 498804801 heartbeat IPC: 1.892 cumulative IPC: 1.877 (Simulation time: 02 hr 43 min 04 sec)
Heartbeat CPU 0 instructions: 1040000153 cycles: 504130614 heartbeat IPC: 1.878 cumulative IPC: 1.877 (Simulation time: 02 hr 44 min 43 sec)
Heartbeat CPU 0 instructions: 1050000155 cycles: 509462036 heartbeat IPC: 1.876 cumulative IPC: 1.877 (Simulation time: 02 hr 46 min 23 sec)
Heartbeat CPU 0 instructions: 1060000155 cycles: 514749316 heartbeat IPC: 1.891 cumulative IPC: 1.877 (Simulation time: 02 hr 48 min 03 sec)
Heartbeat CPU 0 instructions: 1070000157 cycles: 520089892 heartbeat IPC: 1.872 cumulative IPC: 1.877 (Simulation time: 02 hr 49 min 43 sec)
Heartbeat CPU 0 instructions: 1080000157 cycles: 525537175 heartbeat IPC: 1.836 cumulative IPC: 1.877 (Simulation time: 02 hr 51 min 23 sec)
Heartbeat CPU 0 instructions: 1090000157 cycles: 530875278 heartbeat IPC: 1.873 cumulative IPC: 1.876 (Simulation time: 02 hr 53 min 02 sec)
Heartbeat CPU 0 instructions: 1100000160 cycles: 536193654 heartbeat IPC: 1.88 cumulative IPC: 1.877 (Simulation time: 02 hr 54 min 41 sec)
Heartbeat CPU 0 instructions: 1110000162 cycles: 541490025 heartbeat IPC: 1.888 cumulative IPC: 1.877 (Simulation time: 02 hr 56 min 19 sec)
Heartbeat CPU 0 instructions: 1120000162 cycles: 546777855 heartbeat IPC: 1.891 cumulative IPC: 1.877 (Simulation time: 02 hr 57 min 58 sec)
Heartbeat CPU 0 instructions: 1130000163 cycles: 552097861 heartbeat IPC: 1.88 cumulative IPC: 1.877 (Simulation time: 02 hr 59 min 37 sec)
Heartbeat CPU 0 instructions: 1140000166 cycles: 557406865 heartbeat IPC: 1.884 cumulative IPC: 1.877 (Simulation time: 03 hr 01 min 15 sec)
Heartbeat CPU 0 instructions: 1150000166 cycles: 562717446 heartbeat IPC: 1.883 cumulative IPC: 1.877 (Simulation time: 03 hr 02 min 54 sec)
Heartbeat CPU 0 instructions: 1160000166 cycles: 568077359 heartbeat IPC: 1.866 cumulative IPC: 1.877 (Simulation time: 03 hr 04 min 34 sec)
Heartbeat CPU 0 instructions: 1170000168 cycles: 573378602 heartbeat IPC: 1.886 cumulative IPC: 1.877 (Simulation time: 03 hr 06 min 12 sec)
Heartbeat CPU 0 instructions: 1180000168 cycles: 578822902 heartbeat IPC: 1.837 cumulative IPC: 1.877 (Simulation time: 03 hr 07 min 53 sec)
Heartbeat CPU 0 instructions: 1190000168 cycles: 584158160 heartbeat IPC: 1.874 cumulative IPC: 1.877 (Simulation time: 03 hr 09 min 33 sec)
Simulation finished CPU 0 instructions: 1000000000 cycles: 532932339 cumulative IPC: 1.876 (Simulation time: 03 hr 11 min 12 sec)
Simulation complete CPU 0 instructions: 1000000000 cycles: 532932339 cumulative IPC: 1.876 (Simulation time: 03 hr 11 min 12 sec)

ChampSim completed all CPUs

=== Simulation ===
CPU 0 runs /home/grads/b/bhavishya_k_s/ecen676/ChampSim/dpc3_traces/607.cactuBSSN_s-2421B.champsimtrace.xz

Region of Interest Statistics

CPU 0 cumulative IPC: 1.876 instructions: 1000000000 cycles: 532932339
CPU 0 Branch Prediction Accuracy: 99.85% MPKI: 0.001788 Average ROB Occupancy at Mispredict: 277.2
Branch type MPKI
BRANCH_DIRECT_JUMP: 0
BRANCH_INDIRECT: 0
BRANCH_CONDITIONAL: 0.001788
BRANCH_DIRECT_CALL: 0
BRANCH_INDIRECT_CALL: 0
BRANCH_RETURN: 0

cpu0->cpu0_STLB TOTAL        ACCESS:   75412276 HIT:   75290288 MISS:     121988 MSHR_MERGE:          0
cpu0->cpu0_STLB LOAD         ACCESS:   75412276 HIT:   75290288 MISS:     121988 MSHR_MERGE:          0
cpu0->cpu0_STLB RFO          ACCESS:          0 HIT:          0 MISS:          0 MSHR_MERGE:          0
cpu0->cpu0_STLB PREFETCH     ACCESS:          0 HIT:          0 MISS:          0 MSHR_MERGE:          0
cpu0->cpu0_STLB WRITE        ACCESS:          0 HIT:          0 MISS:          0 MSHR_MERGE:          0
cpu0->cpu0_STLB TRANSLATION  ACCESS:          0 HIT:          0 MISS:          0 MSHR_MERGE:          0
cpu0->cpu0_STLB PREFETCH REQUESTED:          0 ISSUED:          0 USEFUL:          0 USELESS:          0
cpu0->cpu0_STLB AVERAGE MISS LATENCY: 335.1 cycles
cpu0->cpu0_L2C TOTAL        ACCESS:  243231658 HIT:  186536626 MISS:   56695032 MSHR_MERGE:    1655869
cpu0->cpu0_L2C LOAD         ACCESS:  108855972 HIT:  100143077 MISS:    8712895 MSHR_MERGE:       7314
cpu0->cpu0_L2C RFO          ACCESS:    8129832 HIT:    7679644 MISS:     450188 MSHR_MERGE:          0
cpu0->cpu0_L2C PREFETCH     ACCESS:  117133835 HIT:   69756939 MISS:   47376896 MSHR_MERGE:    1648555
cpu0->cpu0_L2C WRITE        ACCESS:    8923799 HIT:    8923074 MISS:        725 MSHR_MERGE:          0
cpu0->cpu0_L2C TRANSLATION  ACCESS:     188220 HIT:      33892 MISS:     154328 MSHR_MERGE:          0
cpu0->cpu0_L2C PREFETCH REQUESTED:  150812685 ISSUED:  117133844 USEFUL:    3401703 USELESS:     103793
cpu0->cpu0_L2C AVERAGE MISS LATENCY: 51.11 cycles
cpu0->cpu0_L1I TOTAL        ACCESS:  194821169 HIT:  194821169 MISS:          0 MSHR_MERGE:          0
cpu0->cpu0_L1I LOAD         ACCESS:  194821169 HIT:  194821169 MISS:          0 MSHR_MERGE:          0
cpu0->cpu0_L1I RFO          ACCESS:          0 HIT:          0 MISS:          0 MSHR_MERGE:          0
cpu0->cpu0_L1I PREFETCH     ACCESS:          0 HIT:          0 MISS:          0 MSHR_MERGE:          0
cpu0->cpu0_L1I WRITE        ACCESS:          0 HIT:          0 MISS:          0 MSHR_MERGE:          0
cpu0->cpu0_L1I TRANSLATION  ACCESS:          0 HIT:          0 MISS:          0 MSHR_MERGE:          0
cpu0->cpu0_L1I PREFETCH REQUESTED:          0 ISSUED:          0 USEFUL:          0 USELESS:          0
cpu0->cpu0_L1I AVERAGE MISS LATENCY: - cycles
cpu0->cpu0_L1D TOTAL        ACCESS:  307491432 HIT:  173411080 MISS:  134080352 MSHR_MERGE:   16633710
cpu0->cpu0_L1D LOAD         ACCESS:  193049842 HIT:   68127748 MISS:  124922094 MSHR_MERGE:   15799396
cpu0->cpu0_L1D RFO          ACCESS:          0 HIT:          0 MISS:          0 MSHR_MERGE:          0
cpu0->cpu0_L1D PREFETCH     ACCESS:          0 HIT:          0 MISS:          0 MSHR_MERGE:          0
cpu0->cpu0_L1D WRITE        ACCESS:  114251526 HIT:  105281694 MISS:    8969832 MSHR_MERGE:     834108
cpu0->cpu0_L1D TRANSLATION  ACCESS:     190064 HIT:       1638 MISS:     188426 MSHR_MERGE:        206
cpu0->cpu0_L1D PREFETCH REQUESTED:          0 ISSUED:          0 USEFUL:          0 USELESS:          0
cpu0->cpu0_L1D AVERAGE MISS LATENCY: 12.99 cycles
cpu0->cpu0_ITLB TOTAL        ACCESS:  157111465 HIT:  157111465 MISS:          0 MSHR_MERGE:          0
cpu0->cpu0_ITLB LOAD         ACCESS:  157111465 HIT:  157111465 MISS:          0 MSHR_MERGE:          0
cpu0->cpu0_ITLB RFO          ACCESS:          0 HIT:          0 MISS:          0 MSHR_MERGE:          0
cpu0->cpu0_ITLB PREFETCH     ACCESS:          0 HIT:          0 MISS:          0 MSHR_MERGE:          0
cpu0->cpu0_ITLB WRITE        ACCESS:          0 HIT:          0 MISS:          0 MSHR_MERGE:          0
cpu0->cpu0_ITLB TRANSLATION  ACCESS:          0 HIT:          0 MISS:          0 MSHR_MERGE:          0
cpu0->cpu0_ITLB PREFETCH REQUESTED:          0 ISSUED:          0 USEFUL:          0 USELESS:          0
cpu0->cpu0_ITLB AVERAGE MISS LATENCY: - cycles
cpu0->cpu0_DTLB TOTAL        ACCESS:  284324278 HIT:  182445840 MISS:  101878438 MSHR_MERGE:   26466162
cpu0->cpu0_DTLB LOAD         ACCESS:  284324278 HIT:  182445840 MISS:  101878438 MSHR_MERGE:   26466162
cpu0->cpu0_DTLB RFO          ACCESS:          0 HIT:          0 MISS:          0 MSHR_MERGE:          0
cpu0->cpu0_DTLB PREFETCH     ACCESS:          0 HIT:          0 MISS:          0 MSHR_MERGE:          0
cpu0->cpu0_DTLB WRITE        ACCESS:          0 HIT:          0 MISS:          0 MSHR_MERGE:          0
cpu0->cpu0_DTLB TRANSLATION  ACCESS:          0 HIT:          0 MISS:          0 MSHR_MERGE:          0
cpu0->cpu0_DTLB PREFETCH REQUESTED:          0 ISSUED:          0 USEFUL:          0 USELESS:          0
cpu0->cpu0_DTLB AVERAGE MISS LATENCY: 5.588 cycles
cpu0->LLC TOTAL        ACCESS:   56286726 HIT:   47638955 MISS:    8647771 MSHR_MERGE:     675564
cpu0->LLC LOAD         ACCESS:    8705572 HIT:    7432228 MISS:    1273344 MSHR_MERGE:       1264
cpu0->LLC RFO          ACCESS:     446391 HIT:     446382 MISS:          9 MSHR_MERGE:          0
cpu0->LLC PREFETCH     ACCESS:   45704530 HIT:   38429462 MISS:    7275068 MSHR_MERGE:     674300
cpu0->LLC WRITE        ACCESS:    1275905 HIT:    1273191 MISS:       2714 MSHR_MERGE:          0
cpu0->LLC TRANSLATION  ACCESS:     154328 HIT:      57692 MISS:      96636 MSHR_MERGE:          0
cpu0->LLC PREFETCH REQUESTED:          0 ISSUED:          0 USEFUL:          0 USELESS:          0
cpu0->LLC AVERAGE MISS LATENCY: 243.8 cycles

DRAM Statistics

Channel 0 RQ ROW_BUFFER_HIT:       2515
  ROW_BUFFER_MISS:    7966856
  AVG DBUS CONGESTED CYCLE: 4.622
Channel 0 WQ ROW_BUFFER_HIT:     100628
  ROW_BUFFER_MISS:     856991
  FULL:          0
Channel 0 REFRESHES ISSUED:      44411
