[VMEM] WARNING: physical memory size is smaller than virtual memory size.
WARNING: option --warmup_instructions is deprecated. Use --warmup-instructions instead.
WARNING: option --simulation_instructions is deprecated. Use --simulation-instructions instead.

*** ChampSim Multicore Out-of-Order Simulator ***
Warmup Instructions: 200000000
Simulation Instructions: 1000000000
Number of CPUs: 1
Page size: 4096

Initialize SIGNATURE TABLE
ST_SET: 1
ST_WAY: 256
ST_TAG_BIT: 16

Initialize PATTERN TABLE
PT_SET: 512
PT_WAY: 4
SIG_DELTA_BIT: 7
C_SIG_BIT: 4
C_DELTA_BIT: 4

Initialize PREFETCH FILTER
FILTER_SET: 1024
Off-chip DRAM Size: 16 GiB Channels: 1 Width: 64-bit Data Rate: 3205 MT/s
Heartbeat CPU 0 instructions: 10000002 cycles: 4800736 heartbeat IPC: 2.083 cumulative IPC: 2.083 (Simulation time: 00 hr 01 min 35 sec)
Heartbeat CPU 0 instructions: 20000005 cycles: 9010486 heartbeat IPC: 2.375 cumulative IPC: 2.22 (Simulation time: 00 hr 03 min 03 sec)
Heartbeat CPU 0 instructions: 30000009 cycles: 12948761 heartbeat IPC: 2.539 cumulative IPC: 2.317 (Simulation time: 00 hr 04 min 29 sec)
Heartbeat CPU 0 instructions: 40000012 cycles: 16789787 heartbeat IPC: 2.603 cumulative IPC: 2.382 (Simulation time: 00 hr 05 min 52 sec)
Heartbeat CPU 0 instructions: 50000013 cycles: 20329602 heartbeat IPC: 2.825 cumulative IPC: 2.459 (Simulation time: 00 hr 07 min 14 sec)
Heartbeat CPU 0 instructions: 60000016 cycles: 23293137 heartbeat IPC: 3.374 cumulative IPC: 2.576 (Simulation time: 00 hr 08 min 28 sec)
Heartbeat CPU 0 instructions: 70000016 cycles: 26072876 heartbeat IPC: 3.597 cumulative IPC: 2.685 (Simulation time: 00 hr 09 min 42 sec)
Heartbeat CPU 0 instructions: 80000018 cycles: 28844562 heartbeat IPC: 3.608 cumulative IPC: 2.773 (Simulation time: 00 hr 10 min 55 sec)
Heartbeat CPU 0 instructions: 90000021 cycles: 31602610 heartbeat IPC: 3.626 cumulative IPC: 2.848 (Simulation time: 00 hr 12 min 08 sec)
Heartbeat CPU 0 instructions: 100000023 cycles: 34360927 heartbeat IPC: 3.625 cumulative IPC: 2.91 (Simulation time: 00 hr 13 min 21 sec)
Heartbeat CPU 0 instructions: 110000024 cycles: 37116612 heartbeat IPC: 3.629 cumulative IPC: 2.964 (Simulation time: 00 hr 14 min 34 sec)
Heartbeat CPU 0 instructions: 120000025 cycles: 39853669 heartbeat IPC: 3.654 cumulative IPC: 3.011 (Simulation time: 00 hr 15 min 46 sec)
Heartbeat CPU 0 instructions: 130000028 cycles: 42600056 heartbeat IPC: 3.641 cumulative IPC: 3.052 (Simulation time: 00 hr 16 min 59 sec)
Heartbeat CPU 0 instructions: 140000028 cycles: 45333752 heartbeat IPC: 3.658 cumulative IPC: 3.088 (Simulation time: 00 hr 18 min 11 sec)
Heartbeat CPU 0 instructions: 150000028 cycles: 48069804 heartbeat IPC: 3.655 cumulative IPC: 3.12 (Simulation time: 00 hr 19 min 24 sec)
Heartbeat CPU 0 instructions: 160000029 cycles: 50796020 heartbeat IPC: 3.668 cumulative IPC: 3.15 (Simulation time: 00 hr 20 min 38 sec)
Heartbeat CPU 0 instructions: 170000032 cycles: 53522449 heartbeat IPC: 3.668 cumulative IPC: 3.176 (Simulation time: 00 hr 21 min 50 sec)
Heartbeat CPU 0 instructions: 180000032 cycles: 56246054 heartbeat IPC: 3.672 cumulative IPC: 3.2 (Simulation time: 00 hr 23 min 06 sec)
Heartbeat CPU 0 instructions: 190000034 cycles: 58971421 heartbeat IPC: 3.669 cumulative IPC: 3.222 (Simulation time: 00 hr 24 min 18 sec)
Warmup finished CPU 0 instructions: 200000000 cycles: 61692598 cumulative IPC: 3.242 (Simulation time: 00 hr 25 min 31 sec)
Warmup complete CPU 0 instructions: 200000000 cycles: 61692598 cumulative IPC: 3.242 (Simulation time: 00 hr 25 min 31 sec)
Heartbeat CPU 0 instructions: 200000035 cycles: 61692605 heartbeat IPC: 3.675 cumulative IPC: 5 (Simulation time: 00 hr 25 min 31 sec)
Heartbeat CPU 0 instructions: 210000039 cycles: 87621247 heartbeat IPC: 0.3857 cumulative IPC: 0.3857 (Simulation time: 00 hr 29 min 31 sec)
Heartbeat CPU 0 instructions: 220000039 cycles: 113454313 heartbeat IPC: 0.3871 cumulative IPC: 0.3864 (Simulation time: 00 hr 33 min 25 sec)
Heartbeat CPU 0 instructions: 230000040 cycles: 138962760 heartbeat IPC: 0.392 cumulative IPC: 0.3882 (Simulation time: 00 hr 37 min 13 sec)
Heartbeat CPU 0 instructions: 240000044 cycles: 165073767 heartbeat IPC: 0.383 cumulative IPC: 0.3869 (Simulation time: 00 hr 41 min 05 sec)
Heartbeat CPU 0 instructions: 250000044 cycles: 191386323 heartbeat IPC: 0.38 cumulative IPC: 0.3855 (Simulation time: 00 hr 45 min 01 sec)
Heartbeat CPU 0 instructions: 260000046 cycles: 217483025 heartbeat IPC: 0.3832 cumulative IPC: 0.3851 (Simulation time: 00 hr 48 min 54 sec)
Heartbeat CPU 0 instructions: 270000050 cycles: 244079430 heartbeat IPC: 0.376 cumulative IPC: 0.3838 (Simulation time: 00 hr 52 min 48 sec)
Heartbeat CPU 0 instructions: 280000054 cycles: 270293609 heartbeat IPC: 0.3815 cumulative IPC: 0.3835 (Simulation time: 00 hr 56 min 39 sec)
Heartbeat CPU 0 instructions: 290000056 cycles: 296960036 heartbeat IPC: 0.375 cumulative IPC: 0.3825 (Simulation time: 01 hr 00 min 36 sec)
Heartbeat CPU 0 instructions: 300000058 cycles: 323070216 heartbeat IPC: 0.383 cumulative IPC: 0.3826 (Simulation time: 01 hr 04 min 24 sec)
Heartbeat CPU 0 instructions: 310000061 cycles: 348991233 heartbeat IPC: 0.3858 cumulative IPC: 0.3829 (Simulation time: 01 hr 08 min 13 sec)
Heartbeat CPU 0 instructions: 320000063 cycles: 375506745 heartbeat IPC: 0.3771 cumulative IPC: 0.3824 (Simulation time: 01 hr 12 min 09 sec)
Heartbeat CPU 0 instructions: 330000065 cycles: 401744934 heartbeat IPC: 0.3811 cumulative IPC: 0.3823 (Simulation time: 01 hr 16 min 06 sec)
Heartbeat CPU 0 instructions: 340000066 cycles: 428202590 heartbeat IPC: 0.378 cumulative IPC: 0.382 (Simulation time: 01 hr 20 min 01 sec)
Heartbeat CPU 0 instructions: 350000067 cycles: 455052949 heartbeat IPC: 0.3724 cumulative IPC: 0.3813 (Simulation time: 01 hr 24 min 01 sec)
Heartbeat CPU 0 instructions: 360000069 cycles: 481534768 heartbeat IPC: 0.3776 cumulative IPC: 0.3811 (Simulation time: 01 hr 27 min 52 sec)
Heartbeat CPU 0 instructions: 370000070 cycles: 508024816 heartbeat IPC: 0.3775 cumulative IPC: 0.3809 (Simulation time: 01 hr 31 min 44 sec)
Heartbeat CPU 0 instructions: 380000072 cycles: 534301976 heartbeat IPC: 0.3806 cumulative IPC: 0.3809 (Simulation time: 01 hr 35 min 36 sec)
Heartbeat CPU 0 instructions: 390000072 cycles: 559935191 heartbeat IPC: 0.3901 cumulative IPC: 0.3813 (Simulation time: 01 hr 39 min 20 sec)
Heartbeat CPU 0 instructions: 400000072 cycles: 586787176 heartbeat IPC: 0.3724 cumulative IPC: 0.3809 (Simulation time: 01 hr 43 min 17 sec)
Heartbeat CPU 0 instructions: 410000075 cycles: 613340331 heartbeat IPC: 0.3766 cumulative IPC: 0.3807 (Simulation time: 01 hr 47 min 10 sec)
Heartbeat CPU 0 instructions: 420000076 cycles: 639204707 heartbeat IPC: 0.3866 cumulative IPC: 0.3809 (Simulation time: 01 hr 50 min 56 sec)
Heartbeat CPU 0 instructions: 430000077 cycles: 665416189 heartbeat IPC: 0.3815 cumulative IPC: 0.381 (Simulation time: 01 hr 54 min 44 sec)
Heartbeat CPU 0 instructions: 440000081 cycles: 691354696 heartbeat IPC: 0.3855 cumulative IPC: 0.3812 (Simulation time: 01 hr 58 min 33 sec)
Heartbeat CPU 0 instructions: 450000081 cycles: 717547947 heartbeat IPC: 0.3818 cumulative IPC: 0.3812 (Simulation time: 02 hr 02 min 24 sec)
Heartbeat CPU 0 instructions: 460000083 cycles: 743012445 heartbeat IPC: 0.3927 cumulative IPC: 0.3816 (Simulation time: 02 hr 06 min 10 sec)
Heartbeat CPU 0 instructions: 470000084 cycles: 769143389 heartbeat IPC: 0.3827 cumulative IPC: 0.3817 (Simulation time: 02 hr 10 min 00 sec)
Heartbeat CPU 0 instructions: 480000085 cycles: 795050933 heartbeat IPC: 0.386 cumulative IPC: 0.3818 (Simulation time: 02 hr 13 min 50 sec)
Heartbeat CPU 0 instructions: 490000088 cycles: 820806848 heartbeat IPC: 0.3883 cumulative IPC: 0.382 (Simulation time: 02 hr 17 min 35 sec)
Heartbeat CPU 0 instructions: 500000089 cycles: 846564125 heartbeat IPC: 0.3882 cumulative IPC: 0.3822 (Simulation time: 02 hr 21 min 22 sec)
Heartbeat CPU 0 instructions: 510000089 cycles: 872674629 heartbeat IPC: 0.383 cumulative IPC: 0.3823 (Simulation time: 02 hr 25 min 11 sec)
Heartbeat CPU 0 instructions: 520000092 cycles: 898395068 heartbeat IPC: 0.3888 cumulative IPC: 0.3825 (Simulation time: 02 hr 28 min 57 sec)
Heartbeat CPU 0 instructions: 530000093 cycles: 924378681 heartbeat IPC: 0.3849 cumulative IPC: 0.3825 (Simulation time: 02 hr 32 min 48 sec)
Heartbeat CPU 0 instructions: 540000095 cycles: 949392572 heartbeat IPC: 0.3998 cumulative IPC: 0.383 (Simulation time: 02 hr 36 min 30 sec)
Heartbeat CPU 0 instructions: 550000096 cycles: 975660335 heartbeat IPC: 0.3807 cumulative IPC: 0.3829 (Simulation time: 02 hr 40 min 20 sec)
Heartbeat CPU 0 instructions: 560000096 cycles: 1002049292 heartbeat IPC: 0.3789 cumulative IPC: 0.3828 (Simulation time: 02 hr 44 min 09 sec)
Heartbeat CPU 0 instructions: 570000098 cycles: 1027883401 heartbeat IPC: 0.3871 cumulative IPC: 0.3829 (Simulation time: 02 hr 47 min 56 sec)
Heartbeat CPU 0 instructions: 580000098 cycles: 1053808023 heartbeat IPC: 0.3857 cumulative IPC: 0.383 (Simulation time: 02 hr 51 min 42 sec)
Heartbeat CPU 0 instructions: 590000101 cycles: 1080425124 heartbeat IPC: 0.3757 cumulative IPC: 0.3828 (Simulation time: 02 hr 55 min 35 sec)
Heartbeat CPU 0 instructions: 600000103 cycles: 1106098127 heartbeat IPC: 0.3895 cumulative IPC: 0.383 (Simulation time: 02 hr 59 min 23 sec)
Heartbeat CPU 0 instructions: 610000105 cycles: 1132101719 heartbeat IPC: 0.3846 cumulative IPC: 0.383 (Simulation time: 03 hr 03 min 13 sec)
Heartbeat CPU 0 instructions: 620000108 cycles: 1159396594 heartbeat IPC: 0.3664 cumulative IPC: 0.3826 (Simulation time: 03 hr 07 min 13 sec)
Heartbeat CPU 0 instructions: 630000109 cycles: 1185550926 heartbeat IPC: 0.3823 cumulative IPC: 0.3826 (Simulation time: 03 hr 11 min 03 sec)
Heartbeat CPU 0 instructions: 640000110 cycles: 1211830010 heartbeat IPC: 0.3805 cumulative IPC: 0.3826 (Simulation time: 03 hr 14 min 53 sec)
Heartbeat CPU 0 instructions: 650000111 cycles: 1238208711 heartbeat IPC: 0.3791 cumulative IPC: 0.3825 (Simulation time: 03 hr 18 min 46 sec)
Heartbeat CPU 0 instructions: 660000111 cycles: 1264598653 heartbeat IPC: 0.3789 cumulative IPC: 0.3824 (Simulation time: 03 hr 22 min 40 sec)
Heartbeat CPU 0 instructions: 670000114 cycles: 1291151531 heartbeat IPC: 0.3766 cumulative IPC: 0.3823 (Simulation time: 03 hr 26 min 34 sec)
Heartbeat CPU 0 instructions: 680000117 cycles: 1316900791 heartbeat IPC: 0.3884 cumulative IPC: 0.3824 (Simulation time: 03 hr 30 min 20 sec)
Heartbeat CPU 0 instructions: 690000119 cycles: 1343597696 heartbeat IPC: 0.3746 cumulative IPC: 0.3822 (Simulation time: 03 hr 34 min 13 sec)
Heartbeat CPU 0 instructions: 700000119 cycles: 1369679280 heartbeat IPC: 0.3834 cumulative IPC: 0.3823 (Simulation time: 03 hr 38 min 02 sec)
Heartbeat CPU 0 instructions: 710000123 cycles: 1395668892 heartbeat IPC: 0.3848 cumulative IPC: 0.3823 (Simulation time: 03 hr 41 min 50 sec)
Heartbeat CPU 0 instructions: 720000123 cycles: 1421984758 heartbeat IPC: 0.38 cumulative IPC: 0.3823 (Simulation time: 03 hr 45 min 41 sec)
Heartbeat CPU 0 instructions: 730000123 cycles: 1448578836 heartbeat IPC: 0.376 cumulative IPC: 0.3822 (Simulation time: 03 hr 49 min 32 sec)
Heartbeat CPU 0 instructions: 740000123 cycles: 1474963726 heartbeat IPC: 0.379 cumulative IPC: 0.3821 (Simulation time: 03 hr 53 min 22 sec)
Heartbeat CPU 0 instructions: 750000124 cycles: 1501429572 heartbeat IPC: 0.3778 cumulative IPC: 0.382 (Simulation time: 03 hr 57 min 13 sec)
Heartbeat CPU 0 instructions: 760000124 cycles: 1527614893 heartbeat IPC: 0.3819 cumulative IPC: 0.382 (Simulation time: 04 hr 01 min 02 sec)
Heartbeat CPU 0 instructions: 770000124 cycles: 1554992063 heartbeat IPC: 0.3653 cumulative IPC: 0.3817 (Simulation time: 04 hr 05 min 05 sec)
Heartbeat CPU 0 instructions: 780000124 cycles: 1581734899 heartbeat IPC: 0.3739 cumulative IPC: 0.3816 (Simulation time: 04 hr 08 min 59 sec)
Heartbeat CPU 0 instructions: 790000125 cycles: 1610115968 heartbeat IPC: 0.3523 cumulative IPC: 0.381 (Simulation time: 04 hr 13 min 07 sec)
Heartbeat CPU 0 instructions: 800000125 cycles: 1636460419 heartbeat IPC: 0.3796 cumulative IPC: 0.381 (Simulation time: 04 hr 16 min 59 sec)
Heartbeat CPU 0 instructions: 810000125 cycles: 1663479899 heartbeat IPC: 0.3701 cumulative IPC: 0.3808 (Simulation time: 04 hr 20 min 56 sec)
Heartbeat CPU 0 instructions: 820000127 cycles: 1690087669 heartbeat IPC: 0.3758 cumulative IPC: 0.3807 (Simulation time: 04 hr 24 min 50 sec)
Heartbeat CPU 0 instructions: 830000130 cycles: 1717641650 heartbeat IPC: 0.3629 cumulative IPC: 0.3804 (Simulation time: 04 hr 28 min 51 sec)
Heartbeat CPU 0 instructions: 840000130 cycles: 1745045108 heartbeat IPC: 0.3649 cumulative IPC: 0.3802 (Simulation time: 04 hr 32 min 51 sec)
Heartbeat CPU 0 instructions: 850000132 cycles: 1772278560 heartbeat IPC: 0.3672 cumulative IPC: 0.38 (Simulation time: 04 hr 36 min 49 sec)
Heartbeat CPU 0 instructions: 860000135 cycles: 1799469822 heartbeat IPC: 0.3678 cumulative IPC: 0.3798 (Simulation time: 04 hr 40 min 47 sec)
Heartbeat CPU 0 instructions: 870000136 cycles: 1827551820 heartbeat IPC: 0.3561 cumulative IPC: 0.3794 (Simulation time: 04 hr 44 min 52 sec)
Heartbeat CPU 0 instructions: 880000140 cycles: 1853733437 heartbeat IPC: 0.3819 cumulative IPC: 0.3795 (Simulation time: 04 hr 48 min 47 sec)
Heartbeat CPU 0 instructions: 890000143 cycles: 1880605005 heartbeat IPC: 0.3721 cumulative IPC: 0.3793 (Simulation time: 04 hr 52 min 43 sec)
Heartbeat CPU 0 instructions: 900000147 cycles: 1907118608 heartbeat IPC: 0.3772 cumulative IPC: 0.3793 (Simulation time: 04 hr 56 min 35 sec)
Heartbeat CPU 0 instructions: 910000149 cycles: 1933931910 heartbeat IPC: 0.3729 cumulative IPC: 0.3792 (Simulation time: 05 hr 00 min 30 sec)
Heartbeat CPU 0 instructions: 920000149 cycles: 1960876919 heartbeat IPC: 0.3711 cumulative IPC: 0.3791 (Simulation time: 05 hr 04 min 26 sec)
Heartbeat CPU 0 instructions: 930000150 cycles: 1988009667 heartbeat IPC: 0.3686 cumulative IPC: 0.379 (Simulation time: 05 hr 08 min 26 sec)
Heartbeat CPU 0 instructions: 940000154 cycles: 2014395390 heartbeat IPC: 0.379 cumulative IPC: 0.379 (Simulation time: 05 hr 12 min 19 sec)
Heartbeat CPU 0 instructions: 950000154 cycles: 2041151423 heartbeat IPC: 0.3737 cumulative IPC: 0.3789 (Simulation time: 05 hr 16 min 14 sec)
Heartbeat CPU 0 instructions: 960000154 cycles: 2067405179 heartbeat IPC: 0.3809 cumulative IPC: 0.3789 (Simulation time: 05 hr 20 min 05 sec)
Heartbeat CPU 0 instructions: 970000154 cycles: 2094011039 heartbeat IPC: 0.3759 cumulative IPC: 0.3789 (Simulation time: 05 hr 23 min 58 sec)
Heartbeat CPU 0 instructions: 980000156 cycles: 2120822324 heartbeat IPC: 0.373 cumulative IPC: 0.3788 (Simulation time: 05 hr 27 min 48 sec)
Heartbeat CPU 0 instructions: 990000157 cycles: 2146938895 heartbeat IPC: 0.3829 cumulative IPC: 0.3789 (Simulation time: 05 hr 31 min 37 sec)
Heartbeat CPU 0 instructions: 1000000161 cycles: 2173433132 heartbeat IPC: 0.3774 cumulative IPC: 0.3788 (Simulation time: 05 hr 35 min 26 sec)
Heartbeat CPU 0 instructions: 1010000161 cycles: 2200238520 heartbeat IPC: 0.3731 cumulative IPC: 0.3788 (Simulation time: 05 hr 39 min 20 sec)
Heartbeat CPU 0 instructions: 1020000163 cycles: 2227155785 heartbeat IPC: 0.3715 cumulative IPC: 0.3787 (Simulation time: 05 hr 43 min 12 sec)
Heartbeat CPU 0 instructions: 1030000163 cycles: 2255127826 heartbeat IPC: 0.3575 cumulative IPC: 0.3784 (Simulation time: 05 hr 47 min 16 sec)
Heartbeat CPU 0 instructions: 1040000167 cycles: 2282178330 heartbeat IPC: 0.3697 cumulative IPC: 0.3783 (Simulation time: 05 hr 51 min 12 sec)
Heartbeat CPU 0 instructions: 1050000170 cycles: 2309307028 heartbeat IPC: 0.3686 cumulative IPC: 0.3782 (Simulation time: 05 hr 55 min 12 sec)
Heartbeat CPU 0 instructions: 1060000171 cycles: 2336603773 heartbeat IPC: 0.3663 cumulative IPC: 0.378 (Simulation time: 05 hr 59 min 10 sec)
Heartbeat CPU 0 instructions: 1070000171 cycles: 2364119205 heartbeat IPC: 0.3634 cumulative IPC: 0.3779 (Simulation time: 06 hr 03 min 08 sec)
Heartbeat CPU 0 instructions: 1080000174 cycles: 2391035738 heartbeat IPC: 0.3715 cumulative IPC: 0.3778 (Simulation time: 06 hr 07 min 01 sec)
Heartbeat CPU 0 instructions: 1090000178 cycles: 2417197775 heartbeat IPC: 0.3822 cumulative IPC: 0.3778 (Simulation time: 06 hr 10 min 48 sec)
Heartbeat CPU 0 instructions: 1100000182 cycles: 2443710411 heartbeat IPC: 0.3772 cumulative IPC: 0.3778 (Simulation time: 06 hr 14 min 38 sec)
Heartbeat CPU 0 instructions: 1110000185 cycles: 2470429766 heartbeat IPC: 0.3743 cumulative IPC: 0.3778 (Simulation time: 06 hr 18 min 31 sec)
Heartbeat CPU 0 instructions: 1120000186 cycles: 2496607188 heartbeat IPC: 0.382 cumulative IPC: 0.3778 (Simulation time: 06 hr 22 min 18 sec)
Heartbeat CPU 0 instructions: 1130000188 cycles: 2523861731 heartbeat IPC: 0.3669 cumulative IPC: 0.3777 (Simulation time: 06 hr 26 min 17 sec)
Heartbeat CPU 0 instructions: 1140000189 cycles: 2549756278 heartbeat IPC: 0.3862 cumulative IPC: 0.3778 (Simulation time: 06 hr 30 min 03 sec)
Heartbeat CPU 0 instructions: 1150000189 cycles: 2576276277 heartbeat IPC: 0.3771 cumulative IPC: 0.3778 (Simulation time: 06 hr 33 min 54 sec)
Heartbeat CPU 0 instructions: 1160000189 cycles: 2602886703 heartbeat IPC: 0.3758 cumulative IPC: 0.3778 (Simulation time: 06 hr 37 min 46 sec)
Heartbeat CPU 0 instructions: 1170000189 cycles: 2628810891 heartbeat IPC: 0.3857 cumulative IPC: 0.3779 (Simulation time: 06 hr 41 min 33 sec)
Heartbeat CPU 0 instructions: 1180000191 cycles: 2655208514 heartbeat IPC: 0.3788 cumulative IPC: 0.3779 (Simulation time: 06 hr 45 min 21 sec)
Heartbeat CPU 0 instructions: 1190000194 cycles: 2681401491 heartbeat IPC: 0.3818 cumulative IPC: 0.3779 (Simulation time: 06 hr 49 min 07 sec)
Simulation finished CPU 0 instructions: 1000000002 cycles: 2646376159 cumulative IPC: 0.3779 (Simulation time: 06 hr 53 min 00 sec)
Simulation complete CPU 0 instructions: 1000000002 cycles: 2646376159 cumulative IPC: 0.3779 (Simulation time: 06 hr 53 min 00 sec)

ChampSim completed all CPUs

=== Simulation ===
CPU 0 runs /home/grads/r/raveena_manasi/ECEN_676/ChampSim/dpc3_traces/620.omnetpp_s-874B.champsimtrace.xz

Region of Interest Statistics

CPU 0 cumulative IPC: 0.3779 instructions: 1000000002 cycles: 2646376159
CPU 0 Branch Prediction Accuracy: 94% MPKI: 12.47 Average ROB Occupancy at Mispredict: 49.31
Branch type MPKI
BRANCH_DIRECT_JUMP: 0.9271
BRANCH_INDIRECT: 0.1242
BRANCH_CONDITIONAL: 10.3
BRANCH_DIRECT_CALL: 7e-06
BRANCH_INDIRECT_CALL: 0.7289
BRANCH_RETURN: 0.3946

cpu0->cpu0_STLB TOTAL        ACCESS:   20799842 HIT:   16507100 MISS:    4292742 MSHR_MERGE:          0
cpu0->cpu0_STLB LOAD         ACCESS:   20799842 HIT:   16507100 MISS:    4292742 MSHR_MERGE:          0
cpu0->cpu0_STLB RFO          ACCESS:          0 HIT:          0 MISS:          0 MSHR_MERGE:          0
cpu0->cpu0_STLB PREFETCH     ACCESS:          0 HIT:          0 MISS:          0 MSHR_MERGE:          0
cpu0->cpu0_STLB WRITE        ACCESS:          0 HIT:          0 MISS:          0 MSHR_MERGE:          0
cpu0->cpu0_STLB TRANSLATION  ACCESS:          0 HIT:          0 MISS:          0 MSHR_MERGE:          0
cpu0->cpu0_STLB PREFETCH REQUESTED:          0 ISSUED:          0 USEFUL:          0 USELESS:          0
cpu0->cpu0_STLB AVERAGE MISS LATENCY: 198.2 cycles
cpu0->cpu0_L2C TOTAL        ACCESS:   50361647 HIT:   21426647 MISS:   28935000 MSHR_MERGE:    6974645
cpu0->cpu0_L2C LOAD         ACCESS:   16948429 HIT:    5662102 MISS:   11286327 MSHR_MERGE:       3196
cpu0->cpu0_L2C RFO          ACCESS:    2580229 HIT:     812307 MISS:    1767922 MSHR_MERGE:          1
cpu0->cpu0_L2C PREFETCH     ACCESS:   16440708 HIT:    4552128 MISS:   11888580 MSHR_MERGE:    6971448
cpu0->cpu0_L2C WRITE        ACCESS:    9411982 HIT:    9398577 MISS:      13405 MSHR_MERGE:          0
cpu0->cpu0_L2C TRANSLATION  ACCESS:    4980299 HIT:    1001533 MISS:    3978766 MSHR_MERGE:          0
cpu0->cpu0_L2C PREFETCH REQUESTED:   16440708 ISSUED:   16440708 USEFUL:       4864 USELESS:       1521
cpu0->cpu0_L2C AVERAGE MISS LATENCY: 155.9 cycles
cpu0->cpu0_L1I TOTAL        ACCESS:  138853050 HIT:  138343906 MISS:     509144 MSHR_MERGE:     126906
cpu0->cpu0_L1I LOAD         ACCESS:  138853050 HIT:  138343906 MISS:     509144 MSHR_MERGE:     126906
cpu0->cpu0_L1I RFO          ACCESS:          0 HIT:          0 MISS:          0 MSHR_MERGE:          0
cpu0->cpu0_L1I PREFETCH     ACCESS:          0 HIT:          0 MISS:          0 MSHR_MERGE:          0
cpu0->cpu0_L1I WRITE        ACCESS:          0 HIT:          0 MISS:          0 MSHR_MERGE:          0
cpu0->cpu0_L1I TRANSLATION  ACCESS:          0 HIT:          0 MISS:          0 MSHR_MERGE:          0
cpu0->cpu0_L1I PREFETCH REQUESTED:          0 ISSUED:          0 USEFUL:          0 USELESS:          0
cpu0->cpu0_L1I AVERAGE MISS LATENCY: 20.33 cycles
cpu0->cpu0_L1D TOTAL        ACCESS:  396901746 HIT:  363102142 MISS:   33799604 MSHR_MERGE:    9672778
cpu0->cpu0_L1D LOAD         ACCESS:  208836651 HIT:  187276665 MISS:   21559986 MSHR_MERGE:    4993747
cpu0->cpu0_L1D RFO          ACCESS:          0 HIT:          0 MISS:          0 MSHR_MERGE:          0
cpu0->cpu0_L1D PREFETCH     ACCESS:          0 HIT:          0 MISS:          0 MSHR_MERGE:          0
cpu0->cpu0_L1D WRITE        ACCESS:  182118823 HIT:  174861014 MISS:    7257809 MSHR_MERGE:    4677521
cpu0->cpu0_L1D TRANSLATION  ACCESS:    5946272 HIT:     964463 MISS:    4981809 MSHR_MERGE:       1510
cpu0->cpu0_L1D PREFETCH REQUESTED:          0 ISSUED:          0 USEFUL:          0 USELESS:          0
cpu0->cpu0_L1D AVERAGE MISS LATENCY: 118.7 cycles
cpu0->cpu0_ITLB TOTAL        ACCESS:  123014981 HIT:  119878427 MISS:    3136554 MSHR_MERGE:    1558713
cpu0->cpu0_ITLB LOAD         ACCESS:  123014981 HIT:  119878427 MISS:    3136554 MSHR_MERGE:    1558713
cpu0->cpu0_ITLB RFO          ACCESS:          0 HIT:          0 MISS:          0 MSHR_MERGE:          0
cpu0->cpu0_ITLB PREFETCH     ACCESS:          0 HIT:          0 MISS:          0 MSHR_MERGE:          0
cpu0->cpu0_ITLB WRITE        ACCESS:          0 HIT:          0 MISS:          0 MSHR_MERGE:          0
cpu0->cpu0_ITLB TRANSLATION  ACCESS:          0 HIT:          0 MISS:          0 MSHR_MERGE:          0
cpu0->cpu0_ITLB PREFETCH REQUESTED:          0 ISSUED:          0 USEFUL:          0 USELESS:          0
cpu0->cpu0_ITLB AVERAGE MISS LATENCY: 7.037 cycles
cpu0->cpu0_DTLB TOTAL        ACCESS:  368944313 HIT:  346438917 MISS:   22505396 MSHR_MERGE:    3283395
cpu0->cpu0_DTLB LOAD         ACCESS:  368944313 HIT:  346438917 MISS:   22505396 MSHR_MERGE:    3283395
cpu0->cpu0_DTLB RFO          ACCESS:          0 HIT:          0 MISS:          0 MSHR_MERGE:          0
cpu0->cpu0_DTLB PREFETCH     ACCESS:          0 HIT:          0 MISS:          0 MSHR_MERGE:          0
cpu0->cpu0_DTLB WRITE        ACCESS:          0 HIT:          0 MISS:          0 MSHR_MERGE:          0
cpu0->cpu0_DTLB TRANSLATION  ACCESS:          0 HIT:          0 MISS:          0 MSHR_MERGE:          0
cpu0->cpu0_DTLB PREFETCH REQUESTED:          0 ISSUED:          0 USEFUL:          0 USELESS:          0
cpu0->cpu0_DTLB AVERAGE MISS LATENCY: 49.33 cycles
cpu0->LLC TOTAL        ACCESS:   28444015 HIT:   12298961 MISS:   16145054 MSHR_MERGE:     401390
cpu0->LLC LOAD         ACCESS:   11283131 HIT:    3509292 MISS:    7773839 MSHR_MERGE:     324175
cpu0->LLC RFO          ACCESS:    1767921 HIT:     770664 MISS:     997257 MSHR_MERGE:      14627
cpu0->LLC PREFETCH     ACCESS:    4917092 HIT:    1202319 MISS:    3714773 MSHR_MERGE:      62588
cpu0->LLC WRITE        ACCESS:    6497106 HIT:    6445095 MISS:      52011 MSHR_MERGE:          0
cpu0->LLC TRANSLATION  ACCESS:    3978765 HIT:     371591 MISS:    3607174 MSHR_MERGE:          0
cpu0->LLC PREFETCH REQUESTED:          0 ISSUED:          0 USEFUL:          0 USELESS:          0
cpu0->LLC AVERAGE MISS LATENCY: 192.2 cycles

DRAM Statistics

Channel 0 RQ ROW_BUFFER_HIT:      92529
  ROW_BUFFER_MISS:   15597967
  AVG DBUS CONGESTED CYCLE: 16.91
Channel 0 WQ ROW_BUFFER_HIT:    1649241
  ROW_BUFFER_MISS:    3115900
  FULL:          0
Channel 0 REFRESHES ISSUED:     220531
