[VMEM] WARNING: physical memory size is smaller than virtual memory size.
WARNING: option --warmup_instructions is deprecated. Use --warmup-instructions instead.
WARNING: option --simulation_instructions is deprecated. Use --simulation-instructions instead.

*** ChampSim Multicore Out-of-Order Simulator ***
Warmup Instructions: 200000000
Simulation Instructions: 1000000000
Number of CPUs: 1
Page size: 4096

Initialize SIGNATURE TABLE
ST_SET: 1
ST_WAY: 256
ST_TAG_BIT: 16

Initialize PATTERN TABLE
PT_SET: 512
PT_WAY: 4
SIG_DELTA_BIT: 7
C_SIG_BIT: 4
C_DELTA_BIT: 4

Initialize PREFETCH FILTER
FILTER_SET: 1024
Off-chip DRAM Size: 16 GiB Channels: 1 Width: 64-bit Data Rate: 3205 MT/s
Heartbeat CPU 0 instructions: 10000002 cycles: 2508827 heartbeat IPC: 3.986 cumulative IPC: 3.986 (Simulation time: 00 hr 00 min 45 sec)
Heartbeat CPU 0 instructions: 20000002 cycles: 5010106 heartbeat IPC: 3.998 cumulative IPC: 3.992 (Simulation time: 00 hr 01 min 29 sec)
Heartbeat CPU 0 instructions: 30000003 cycles: 7511190 heartbeat IPC: 3.998 cumulative IPC: 3.994 (Simulation time: 00 hr 02 min 13 sec)
Heartbeat CPU 0 instructions: 40000005 cycles: 10012164 heartbeat IPC: 3.998 cumulative IPC: 3.995 (Simulation time: 00 hr 03 min 00 sec)
Heartbeat CPU 0 instructions: 50000006 cycles: 12513393 heartbeat IPC: 3.998 cumulative IPC: 3.996 (Simulation time: 00 hr 03 min 45 sec)
Heartbeat CPU 0 instructions: 60000009 cycles: 15014362 heartbeat IPC: 3.998 cumulative IPC: 3.996 (Simulation time: 00 hr 04 min 31 sec)
Heartbeat CPU 0 instructions: 70000012 cycles: 17516590 heartbeat IPC: 3.996 cumulative IPC: 3.996 (Simulation time: 00 hr 05 min 15 sec)
Heartbeat CPU 0 instructions: 80000012 cycles: 20017544 heartbeat IPC: 3.998 cumulative IPC: 3.996 (Simulation time: 00 hr 06 min 01 sec)
Heartbeat CPU 0 instructions: 90000015 cycles: 22518531 heartbeat IPC: 3.998 cumulative IPC: 3.997 (Simulation time: 00 hr 06 min 46 sec)
Heartbeat CPU 0 instructions: 100000018 cycles: 25019766 heartbeat IPC: 3.998 cumulative IPC: 3.997 (Simulation time: 00 hr 07 min 31 sec)
Heartbeat CPU 0 instructions: 110000019 cycles: 27520813 heartbeat IPC: 3.998 cumulative IPC: 3.997 (Simulation time: 00 hr 08 min 16 sec)
Heartbeat CPU 0 instructions: 120000019 cycles: 30021905 heartbeat IPC: 3.998 cumulative IPC: 3.997 (Simulation time: 00 hr 09 min 00 sec)
Heartbeat CPU 0 instructions: 130000021 cycles: 32523237 heartbeat IPC: 3.998 cumulative IPC: 3.997 (Simulation time: 00 hr 09 min 44 sec)
Heartbeat CPU 0 instructions: 140000024 cycles: 35025522 heartbeat IPC: 3.996 cumulative IPC: 3.997 (Simulation time: 00 hr 10 min 28 sec)
Heartbeat CPU 0 instructions: 150000026 cycles: 37526757 heartbeat IPC: 3.998 cumulative IPC: 3.997 (Simulation time: 00 hr 11 min 13 sec)
Heartbeat CPU 0 instructions: 160000028 cycles: 40027889 heartbeat IPC: 3.998 cumulative IPC: 3.997 (Simulation time: 00 hr 11 min 57 sec)
Heartbeat CPU 0 instructions: 170000028 cycles: 42529042 heartbeat IPC: 3.998 cumulative IPC: 3.997 (Simulation time: 00 hr 12 min 41 sec)
Heartbeat CPU 0 instructions: 180000031 cycles: 45030172 heartbeat IPC: 3.998 cumulative IPC: 3.997 (Simulation time: 00 hr 13 min 27 sec)
Heartbeat CPU 0 instructions: 190000033 cycles: 47531091 heartbeat IPC: 3.999 cumulative IPC: 3.997 (Simulation time: 00 hr 14 min 12 sec)
Warmup finished CPU 0 instructions: 200000000 cycles: 50033284 cumulative IPC: 3.997 (Simulation time: 00 hr 15 min 01 sec)
Warmup complete CPU 0 instructions: 200000000 cycles: 50033284 cumulative IPC: 3.997 (Simulation time: 00 hr 15 min 01 sec)
Heartbeat CPU 0 instructions: 200000036 cycles: 50033293 heartbeat IPC: 3.996 cumulative IPC: 4 (Simulation time: 00 hr 15 min 01 sec)
Heartbeat CPU 0 instructions: 210000036 cycles: 57148844 heartbeat IPC: 1.405 cumulative IPC: 1.405 (Simulation time: 00 hr 16 min 16 sec)
Heartbeat CPU 0 instructions: 220000038 cycles: 64252597 heartbeat IPC: 1.408 cumulative IPC: 1.407 (Simulation time: 00 hr 17 min 29 sec)
Heartbeat CPU 0 instructions: 230000039 cycles: 71416502 heartbeat IPC: 1.396 cumulative IPC: 1.403 (Simulation time: 00 hr 18 min 43 sec)
Heartbeat CPU 0 instructions: 240000039 cycles: 78634321 heartbeat IPC: 1.385 cumulative IPC: 1.399 (Simulation time: 00 hr 19 min 57 sec)
Heartbeat CPU 0 instructions: 250000039 cycles: 85868079 heartbeat IPC: 1.382 cumulative IPC: 1.395 (Simulation time: 00 hr 21 min 13 sec)
Heartbeat CPU 0 instructions: 260000042 cycles: 93124597 heartbeat IPC: 1.378 cumulative IPC: 1.392 (Simulation time: 00 hr 22 min 31 sec)
Heartbeat CPU 0 instructions: 270000042 cycles: 100366254 heartbeat IPC: 1.381 cumulative IPC: 1.391 (Simulation time: 00 hr 23 min 46 sec)
Heartbeat CPU 0 instructions: 280000044 cycles: 107589749 heartbeat IPC: 1.384 cumulative IPC: 1.39 (Simulation time: 00 hr 25 min 01 sec)
Heartbeat CPU 0 instructions: 290000044 cycles: 114862054 heartbeat IPC: 1.375 cumulative IPC: 1.388 (Simulation time: 00 hr 26 min 16 sec)
Heartbeat CPU 0 instructions: 300000044 cycles: 122122015 heartbeat IPC: 1.377 cumulative IPC: 1.387 (Simulation time: 00 hr 27 min 32 sec)
Heartbeat CPU 0 instructions: 310000045 cycles: 129327249 heartbeat IPC: 1.388 cumulative IPC: 1.387 (Simulation time: 00 hr 28 min 46 sec)
Heartbeat CPU 0 instructions: 320000045 cycles: 136653171 heartbeat IPC: 1.365 cumulative IPC: 1.385 (Simulation time: 00 hr 30 min 00 sec)
Heartbeat CPU 0 instructions: 330000048 cycles: 143913835 heartbeat IPC: 1.377 cumulative IPC: 1.385 (Simulation time: 00 hr 31 min 14 sec)
Heartbeat CPU 0 instructions: 340000050 cycles: 150134155 heartbeat IPC: 1.608 cumulative IPC: 1.399 (Simulation time: 00 hr 32 min 35 sec)
Heartbeat CPU 0 instructions: 350000051 cycles: 156227119 heartbeat IPC: 1.641 cumulative IPC: 1.413 (Simulation time: 00 hr 33 min 51 sec)
Heartbeat CPU 0 instructions: 360000051 cycles: 162462218 heartbeat IPC: 1.604 cumulative IPC: 1.423 (Simulation time: 00 hr 35 min 08 sec)
Heartbeat CPU 0 instructions: 370000053 cycles: 168683419 heartbeat IPC: 1.607 cumulative IPC: 1.433 (Simulation time: 00 hr 36 min 25 sec)
Heartbeat CPU 0 instructions: 380000053 cycles: 174913387 heartbeat IPC: 1.605 cumulative IPC: 1.441 (Simulation time: 00 hr 37 min 43 sec)
Heartbeat CPU 0 instructions: 390000054 cycles: 182795172 heartbeat IPC: 1.269 cumulative IPC: 1.431 (Simulation time: 00 hr 39 min 35 sec)
Heartbeat CPU 0 instructions: 400000056 cycles: 187952508 heartbeat IPC: 1.939 cumulative IPC: 1.45 (Simulation time: 00 hr 40 min 48 sec)
Heartbeat CPU 0 instructions: 410000058 cycles: 193070842 heartbeat IPC: 1.954 cumulative IPC: 1.468 (Simulation time: 00 hr 42 min 00 sec)
Heartbeat CPU 0 instructions: 420000062 cycles: 198092397 heartbeat IPC: 1.991 cumulative IPC: 1.486 (Simulation time: 00 hr 43 min 10 sec)
Heartbeat CPU 0 instructions: 430000064 cycles: 203146992 heartbeat IPC: 1.978 cumulative IPC: 1.502 (Simulation time: 00 hr 44 min 20 sec)
Heartbeat CPU 0 instructions: 440000064 cycles: 208239833 heartbeat IPC: 1.964 cumulative IPC: 1.517 (Simulation time: 00 hr 45 min 32 sec)
Heartbeat CPU 0 instructions: 450000064 cycles: 213299301 heartbeat IPC: 1.976 cumulative IPC: 1.531 (Simulation time: 00 hr 46 min 43 sec)
Heartbeat CPU 0 instructions: 460000064 cycles: 218317653 heartbeat IPC: 1.993 cumulative IPC: 1.545 (Simulation time: 00 hr 47 min 55 sec)
Heartbeat CPU 0 instructions: 470000066 cycles: 223188066 heartbeat IPC: 2.053 cumulative IPC: 1.559 (Simulation time: 00 hr 49 min 05 sec)
Heartbeat CPU 0 instructions: 480000066 cycles: 228229351 heartbeat IPC: 1.984 cumulative IPC: 1.571 (Simulation time: 00 hr 50 min 16 sec)
Heartbeat CPU 0 instructions: 490000068 cycles: 234289889 heartbeat IPC: 1.65 cumulative IPC: 1.574 (Simulation time: 00 hr 51 min 36 sec)
Heartbeat CPU 0 instructions: 500000071 cycles: 240586116 heartbeat IPC: 1.588 cumulative IPC: 1.574 (Simulation time: 00 hr 52 min 53 sec)
Heartbeat CPU 0 instructions: 510000073 cycles: 246858177 heartbeat IPC: 1.594 cumulative IPC: 1.575 (Simulation time: 00 hr 54 min 09 sec)
Heartbeat CPU 0 instructions: 520000077 cycles: 253100852 heartbeat IPC: 1.602 cumulative IPC: 1.576 (Simulation time: 00 hr 55 min 26 sec)
Heartbeat CPU 0 instructions: 530000079 cycles: 259426669 heartbeat IPC: 1.581 cumulative IPC: 1.576 (Simulation time: 00 hr 56 min 44 sec)
Heartbeat CPU 0 instructions: 540000081 cycles: 265725442 heartbeat IPC: 1.588 cumulative IPC: 1.576 (Simulation time: 00 hr 58 min 03 sec)
Heartbeat CPU 0 instructions: 550000084 cycles: 272033005 heartbeat IPC: 1.585 cumulative IPC: 1.577 (Simulation time: 00 hr 59 min 22 sec)
Heartbeat CPU 0 instructions: 560000086 cycles: 278283223 heartbeat IPC: 1.6 cumulative IPC: 1.577 (Simulation time: 01 hr 00 min 40 sec)
Heartbeat CPU 0 instructions: 570000088 cycles: 284559268 heartbeat IPC: 1.593 cumulative IPC: 1.578 (Simulation time: 01 hr 01 min 58 sec)
Heartbeat CPU 0 instructions: 580000089 cycles: 290845249 heartbeat IPC: 1.591 cumulative IPC: 1.578 (Simulation time: 01 hr 03 min 17 sec)
Heartbeat CPU 0 instructions: 590000091 cycles: 297162103 heartbeat IPC: 1.583 cumulative IPC: 1.578 (Simulation time: 01 hr 04 min 36 sec)
Heartbeat CPU 0 instructions: 600000095 cycles: 303454040 heartbeat IPC: 1.589 cumulative IPC: 1.578 (Simulation time: 01 hr 05 min 54 sec)
Heartbeat CPU 0 instructions: 610000095 cycles: 309703124 heartbeat IPC: 1.6 cumulative IPC: 1.579 (Simulation time: 01 hr 07 min 12 sec)
Heartbeat CPU 0 instructions: 620000095 cycles: 318349375 heartbeat IPC: 1.157 cumulative IPC: 1.565 (Simulation time: 01 hr 09 min 16 sec)
Heartbeat CPU 0 instructions: 630000098 cycles: 327922340 heartbeat IPC: 1.045 cumulative IPC: 1.547 (Simulation time: 01 hr 11 min 40 sec)
Heartbeat CPU 0 instructions: 640000101 cycles: 336459743 heartbeat IPC: 1.171 cumulative IPC: 1.536 (Simulation time: 01 hr 13 min 54 sec)
Heartbeat CPU 0 instructions: 650000103 cycles: 346813149 heartbeat IPC: 0.9659 cumulative IPC: 1.516 (Simulation time: 01 hr 16 min 26 sec)
Heartbeat CPU 0 instructions: 660000107 cycles: 359464252 heartbeat IPC: 0.7904 cumulative IPC: 1.487 (Simulation time: 01 hr 18 min 24 sec)
Heartbeat CPU 0 instructions: 670000110 cycles: 365570811 heartbeat IPC: 1.638 cumulative IPC: 1.49 (Simulation time: 01 hr 20 min 08 sec)
Heartbeat CPU 0 instructions: 680000111 cycles: 381988339 heartbeat IPC: 0.6091 cumulative IPC: 1.446 (Simulation time: 01 hr 24 min 15 sec)
Heartbeat CPU 0 instructions: 690000111 cycles: 386403846 heartbeat IPC: 2.265 cumulative IPC: 1.457 (Simulation time: 01 hr 25 min 32 sec)
Heartbeat CPU 0 instructions: 700000112 cycles: 391377880 heartbeat IPC: 2.01 cumulative IPC: 1.465 (Simulation time: 01 hr 26 min 53 sec)
Heartbeat CPU 0 instructions: 710000113 cycles: 396116896 heartbeat IPC: 2.11 cumulative IPC: 1.474 (Simulation time: 01 hr 28 min 11 sec)
Heartbeat CPU 0 instructions: 720000116 cycles: 400344191 heartbeat IPC: 2.366 cumulative IPC: 1.484 (Simulation time: 01 hr 29 min 24 sec)
Heartbeat CPU 0 instructions: 730000117 cycles: 405188995 heartbeat IPC: 2.064 cumulative IPC: 1.492 (Simulation time: 01 hr 30 min 44 sec)
Heartbeat CPU 0 instructions: 740000119 cycles: 410897962 heartbeat IPC: 1.752 cumulative IPC: 1.496 (Simulation time: 01 hr 32 min 13 sec)
Heartbeat CPU 0 instructions: 750000121 cycles: 419641081 heartbeat IPC: 1.144 cumulative IPC: 1.488 (Simulation time: 01 hr 34 min 22 sec)
Heartbeat CPU 0 instructions: 760000123 cycles: 426233511 heartbeat IPC: 1.517 cumulative IPC: 1.489 (Simulation time: 01 hr 36 min 01 sec)
Heartbeat CPU 0 instructions: 770000123 cycles: 433196164 heartbeat IPC: 1.436 cumulative IPC: 1.488 (Simulation time: 01 hr 37 min 53 sec)
Heartbeat CPU 0 instructions: 780000123 cycles: 438589502 heartbeat IPC: 1.854 cumulative IPC: 1.493 (Simulation time: 01 hr 39 min 23 sec)
Heartbeat CPU 0 instructions: 790000123 cycles: 443511575 heartbeat IPC: 2.032 cumulative IPC: 1.499 (Simulation time: 01 hr 40 min 45 sec)
Heartbeat CPU 0 instructions: 800000123 cycles: 450104816 heartbeat IPC: 1.517 cumulative IPC: 1.5 (Simulation time: 01 hr 42 min 30 sec)
Heartbeat CPU 0 instructions: 810000126 cycles: 456293041 heartbeat IPC: 1.616 cumulative IPC: 1.502 (Simulation time: 01 hr 44 min 24 sec)
Heartbeat CPU 0 instructions: 820000126 cycles: 472771316 heartbeat IPC: 0.6069 cumulative IPC: 1.467 (Simulation time: 01 hr 48 min 32 sec)
Heartbeat CPU 0 instructions: 830000126 cycles: 482246156 heartbeat IPC: 1.055 cumulative IPC: 1.458 (Simulation time: 01 hr 50 min 48 sec)
Heartbeat CPU 0 instructions: 840000127 cycles: 491149429 heartbeat IPC: 1.123 cumulative IPC: 1.451 (Simulation time: 01 hr 52 min 59 sec)
Heartbeat CPU 0 instructions: 850000128 cycles: 505112769 heartbeat IPC: 0.7162 cumulative IPC: 1.428 (Simulation time: 01 hr 56 min 17 sec)
Heartbeat CPU 0 instructions: 860000129 cycles: 514739473 heartbeat IPC: 1.039 cumulative IPC: 1.42 (Simulation time: 01 hr 58 min 38 sec)
Heartbeat CPU 0 instructions: 870000131 cycles: 519049684 heartbeat IPC: 2.32 cumulative IPC: 1.429 (Simulation time: 01 hr 59 min 52 sec)
Heartbeat CPU 0 instructions: 880000133 cycles: 525894062 heartbeat IPC: 1.461 cumulative IPC: 1.429 (Simulation time: 02 hr 01 min 41 sec)
Heartbeat CPU 0 instructions: 890000135 cycles: 530110637 heartbeat IPC: 2.372 cumulative IPC: 1.437 (Simulation time: 02 hr 02 min 53 sec)
Heartbeat CPU 0 instructions: 900000138 cycles: 536689074 heartbeat IPC: 1.52 cumulative IPC: 1.438 (Simulation time: 02 hr 04 min 37 sec)
Heartbeat CPU 0 instructions: 910000138 cycles: 540981890 heartbeat IPC: 2.329 cumulative IPC: 1.446 (Simulation time: 02 hr 05 min 50 sec)
Heartbeat CPU 0 instructions: 920000139 cycles: 547435557 heartbeat IPC: 1.55 cumulative IPC: 1.448 (Simulation time: 02 hr 07 min 32 sec)
Heartbeat CPU 0 instructions: 930000140 cycles: 551810074 heartbeat IPC: 2.286 cumulative IPC: 1.455 (Simulation time: 02 hr 08 min 47 sec)
Heartbeat CPU 0 instructions: 940000144 cycles: 558214238 heartbeat IPC: 1.561 cumulative IPC: 1.456 (Simulation time: 02 hr 10 min 29 sec)
Heartbeat CPU 0 instructions: 950000144 cycles: 562675637 heartbeat IPC: 2.241 cumulative IPC: 1.463 (Simulation time: 02 hr 11 min 45 sec)
Heartbeat CPU 0 instructions: 960000144 cycles: 568998060 heartbeat IPC: 1.582 cumulative IPC: 1.464 (Simulation time: 02 hr 13 min 24 sec)
Heartbeat CPU 0 instructions: 970000148 cycles: 575207490 heartbeat IPC: 1.61 cumulative IPC: 1.466 (Simulation time: 02 hr 14 min 52 sec)
Heartbeat CPU 0 instructions: 980000152 cycles: 581472628 heartbeat IPC: 1.596 cumulative IPC: 1.468 (Simulation time: 02 hr 16 min 19 sec)
Heartbeat CPU 0 instructions: 990000155 cycles: 587746378 heartbeat IPC: 1.594 cumulative IPC: 1.469 (Simulation time: 02 hr 17 min 46 sec)
Heartbeat CPU 0 instructions: 1000000155 cycles: 596455361 heartbeat IPC: 1.148 cumulative IPC: 1.464 (Simulation time: 02 hr 19 min 53 sec)
Heartbeat CPU 0 instructions: 1010000157 cycles: 608540505 heartbeat IPC: 0.8275 cumulative IPC: 1.45 (Simulation time: 02 hr 22 min 45 sec)
Heartbeat CPU 0 instructions: 1020000161 cycles: 613256775 heartbeat IPC: 2.12 cumulative IPC: 1.456 (Simulation time: 02 hr 24 min 06 sec)
Heartbeat CPU 0 instructions: 1030000161 cycles: 618278064 heartbeat IPC: 1.992 cumulative IPC: 1.461 (Simulation time: 02 hr 25 min 28 sec)
Heartbeat CPU 0 instructions: 1040000162 cycles: 622766687 heartbeat IPC: 2.228 cumulative IPC: 1.467 (Simulation time: 02 hr 26 min 42 sec)
Heartbeat CPU 0 instructions: 1050000166 cycles: 627358221 heartbeat IPC: 2.178 cumulative IPC: 1.472 (Simulation time: 02 hr 27 min 59 sec)
Heartbeat CPU 0 instructions: 1060000168 cycles: 631996267 heartbeat IPC: 2.156 cumulative IPC: 1.478 (Simulation time: 02 hr 29 min 18 sec)
Heartbeat CPU 0 instructions: 1070000172 cycles: 636261895 heartbeat IPC: 2.344 cumulative IPC: 1.484 (Simulation time: 02 hr 30 min 30 sec)
Heartbeat CPU 0 instructions: 1080000173 cycles: 644470169 heartbeat IPC: 1.218 cumulative IPC: 1.48 (Simulation time: 02 hr 32 min 29 sec)
Heartbeat CPU 0 instructions: 1090000175 cycles: 652279481 heartbeat IPC: 1.281 cumulative IPC: 1.478 (Simulation time: 02 hr 34 min 24 sec)
Heartbeat CPU 0 instructions: 1100000177 cycles: 658187941 heartbeat IPC: 1.692 cumulative IPC: 1.48 (Simulation time: 02 hr 35 min 58 sec)
Heartbeat CPU 0 instructions: 1110000177 cycles: 665664046 heartbeat IPC: 1.338 cumulative IPC: 1.478 (Simulation time: 02 hr 37 min 51 sec)
Heartbeat CPU 0 instructions: 1120000180 cycles: 674882403 heartbeat IPC: 1.085 cumulative IPC: 1.472 (Simulation time: 02 hr 40 min 14 sec)
Heartbeat CPU 0 instructions: 1130000180 cycles: 687379149 heartbeat IPC: 0.8002 cumulative IPC: 1.459 (Simulation time: 02 hr 43 min 19 sec)
Heartbeat CPU 0 instructions: 1140000182 cycles: 695916991 heartbeat IPC: 1.171 cumulative IPC: 1.455 (Simulation time: 02 hr 45 min 21 sec)
Heartbeat CPU 0 instructions: 1150000186 cycles: 704305529 heartbeat IPC: 1.192 cumulative IPC: 1.452 (Simulation time: 02 hr 47 min 24 sec)
Heartbeat CPU 0 instructions: 1160000187 cycles: 717764399 heartbeat IPC: 0.743 cumulative IPC: 1.438 (Simulation time: 02 hr 50 min 31 sec)
Heartbeat CPU 0 instructions: 1170000187 cycles: 727017976 heartbeat IPC: 1.081 cumulative IPC: 1.433 (Simulation time: 02 hr 52 min 42 sec)
Heartbeat CPU 0 instructions: 1180000187 cycles: 739224046 heartbeat IPC: 0.8193 cumulative IPC: 1.422 (Simulation time: 02 hr 55 min 34 sec)
Heartbeat CPU 0 instructions: 1190000188 cycles: 750300667 heartbeat IPC: 0.9028 cumulative IPC: 1.414 (Simulation time: 02 hr 58 min 17 sec)
Simulation finished CPU 0 instructions: 1000000001 cycles: 704587833 cumulative IPC: 1.419 (Simulation time: 02 hr 59 min 32 sec)
Simulation complete CPU 0 instructions: 1000000001 cycles: 704587833 cumulative IPC: 1.419 (Simulation time: 02 hr 59 min 32 sec)

ChampSim completed all CPUs

=== Simulation ===
CPU 0 runs /home/grads/r/raveena_manasi/ECEN_676/ChampSim/dpc3_traces/621.wrf_s-575B.champsimtrace.xz

Region of Interest Statistics

CPU 0 cumulative IPC: 1.419 instructions: 1000000001 cycles: 704587833
CPU 0 Branch Prediction Accuracy: 96.13% MPKI: 3.436 Average ROB Occupancy at Mispredict: 112
Branch type MPKI
BRANCH_DIRECT_JUMP: 0.000394
BRANCH_INDIRECT: 1.8e-05
BRANCH_CONDITIONAL: 3.155
BRANCH_DIRECT_CALL: 0.002478
BRANCH_INDIRECT_CALL: 0
BRANCH_RETURN: 0.2779

cpu0->cpu0_STLB TOTAL        ACCESS:    1129648 HIT:    1038956 MISS:      90692 MSHR_MERGE:          0
cpu0->cpu0_STLB LOAD         ACCESS:    1129648 HIT:    1038956 MISS:      90692 MSHR_MERGE:          0
cpu0->cpu0_STLB RFO          ACCESS:          0 HIT:          0 MISS:          0 MSHR_MERGE:          0
cpu0->cpu0_STLB PREFETCH     ACCESS:          0 HIT:          0 MISS:          0 MSHR_MERGE:          0
cpu0->cpu0_STLB WRITE        ACCESS:          0 HIT:          0 MISS:          0 MSHR_MERGE:          0
cpu0->cpu0_STLB TRANSLATION  ACCESS:          0 HIT:          0 MISS:          0 MSHR_MERGE:          0
cpu0->cpu0_STLB PREFETCH REQUESTED:          0 ISSUED:          0 USEFUL:          0 USELESS:          0
cpu0->cpu0_STLB AVERAGE MISS LATENCY: 94.86 cycles
cpu0->cpu0_L2C TOTAL        ACCESS:   93349169 HIT:   32190367 MISS:   61158802 MSHR_MERGE:    1534975
cpu0->cpu0_L2C LOAD         ACCESS:   12073508 HIT:    7939681 MISS:    4133827 MSHR_MERGE:     815812
cpu0->cpu0_L2C RFO          ACCESS:    3765779 HIT:    1937713 MISS:    1828066 MSHR_MERGE:         20
cpu0->cpu0_L2C PREFETCH     ACCESS:   71107752 HIT:   15926972 MISS:   55180780 MSHR_MERGE:     719143
cpu0->cpu0_L2C WRITE        ACCESS:    6373729 HIT:    6369561 MISS:       4168 MSHR_MERGE:          0
cpu0->cpu0_L2C TRANSLATION  ACCESS:      28401 HIT:      16440 MISS:      11961 MSHR_MERGE:          0
cpu0->cpu0_L2C PREFETCH REQUESTED:  143264809 ISSUED:   71107760 USEFUL:    3944648 USELESS:      38595
cpu0->cpu0_L2C AVERAGE MISS LATENCY: 168.7 cycles
cpu0->cpu0_L1I TOTAL        ACCESS:  107316464 HIT:  106191255 MISS:    1125209 MSHR_MERGE:     419147
cpu0->cpu0_L1I LOAD         ACCESS:  107316464 HIT:  106191255 MISS:    1125209 MSHR_MERGE:     419147
cpu0->cpu0_L1I RFO          ACCESS:          0 HIT:          0 MISS:          0 MSHR_MERGE:          0
cpu0->cpu0_L1I PREFETCH     ACCESS:          0 HIT:          0 MISS:          0 MSHR_MERGE:          0
cpu0->cpu0_L1I WRITE        ACCESS:          0 HIT:          0 MISS:          0 MSHR_MERGE:          0
cpu0->cpu0_L1I TRANSLATION  ACCESS:          0 HIT:          0 MISS:          0 MSHR_MERGE:          0
cpu0->cpu0_L1I PREFETCH REQUESTED:          0 ISSUED:          0 USEFUL:          0 USELESS:          0
cpu0->cpu0_L1I AVERAGE MISS LATENCY: 12.36 cycles
cpu0->cpu0_L1D TOTAL        ACCESS:  287410182 HIT:  257712301 MISS:   29697881 MSHR_MERGE:   14535831
cpu0->cpu0_L1D LOAD         ACCESS:  217967997 HIT:  200303164 MISS:   17664833 MSHR_MERGE:    6297374
cpu0->cpu0_L1D RFO          ACCESS:          0 HIT:          0 MISS:          0 MSHR_MERGE:          0
cpu0->cpu0_L1D PREFETCH     ACCESS:          0 HIT:          0 MISS:          0 MSHR_MERGE:          0
cpu0->cpu0_L1D WRITE        ACCESS:   69351598 HIT:   57348204 MISS:   12003394 MSHR_MERGE:    8237204
cpu0->cpu0_L1D TRANSLATION  ACCESS:      90587 HIT:      60933 MISS:      29654 MSHR_MERGE:       1253
cpu0->cpu0_L1D PREFETCH REQUESTED:          0 ISSUED:          0 USEFUL:          0 USELESS:          0
cpu0->cpu0_L1D AVERAGE MISS LATENCY: 75.52 cycles
cpu0->cpu0_ITLB TOTAL        ACCESS:   91242116 HIT:   91239807 MISS:       2309 MSHR_MERGE:       1584
cpu0->cpu0_ITLB LOAD         ACCESS:   91242116 HIT:   91239807 MISS:       2309 MSHR_MERGE:       1584
cpu0->cpu0_ITLB RFO          ACCESS:          0 HIT:          0 MISS:          0 MSHR_MERGE:          0
cpu0->cpu0_ITLB PREFETCH     ACCESS:          0 HIT:          0 MISS:          0 MSHR_MERGE:          0
cpu0->cpu0_ITLB WRITE        ACCESS:          0 HIT:          0 MISS:          0 MSHR_MERGE:          0
cpu0->cpu0_ITLB TRANSLATION  ACCESS:          0 HIT:          0 MISS:          0 MSHR_MERGE:          0
cpu0->cpu0_ITLB PREFETCH REQUESTED:          0 ISSUED:          0 USEFUL:          0 USELESS:          0
cpu0->cpu0_ITLB AVERAGE MISS LATENCY: 382 cycles
cpu0->cpu0_DTLB TOTAL        ACCESS:  276257609 HIT:  274582355 MISS:    1675254 MSHR_MERGE:     546331
cpu0->cpu0_DTLB LOAD         ACCESS:  276257609 HIT:  274582355 MISS:    1675254 MSHR_MERGE:     546331
cpu0->cpu0_DTLB RFO          ACCESS:          0 HIT:          0 MISS:          0 MSHR_MERGE:          0
cpu0->cpu0_DTLB PREFETCH     ACCESS:          0 HIT:          0 MISS:          0 MSHR_MERGE:          0
cpu0->cpu0_DTLB WRITE        ACCESS:          0 HIT:          0 MISS:          0 MSHR_MERGE:          0
cpu0->cpu0_DTLB TRANSLATION  ACCESS:          0 HIT:          0 MISS:          0 MSHR_MERGE:          0
cpu0->cpu0_DTLB PREFETCH REQUESTED:          0 ISSUED:          0 USEFUL:          0 USELESS:          0
cpu0->cpu0_DTLB AVERAGE MISS LATENCY: 12.47 cycles
cpu0->LLC TOTAL        ACCESS:   63011694 HIT:   41406429 MISS:   21605265 MSHR_MERGE:   13559732
cpu0->LLC LOAD         ACCESS:    3318015 HIT:    2507870 MISS:     810145 MSHR_MERGE:     316142
cpu0->LLC RFO          ACCESS:    1828046 HIT:     223240 MISS:    1604806 MSHR_MERGE:       1803
cpu0->LLC PREFETCH     ACCESS:   53986791 HIT:   34816037 MISS:   19170754 MSHR_MERGE:   13241787
cpu0->LLC WRITE        ACCESS:    3866881 HIT:    3857015 MISS:       9866 MSHR_MERGE:          0
cpu0->LLC TRANSLATION  ACCESS:      11961 HIT:       2267 MISS:       9694 MSHR_MERGE:          0
cpu0->LLC PREFETCH REQUESTED:          0 ISSUED:          0 USEFUL:          0 USELESS:          0
cpu0->LLC AVERAGE MISS LATENCY: 351.7 cycles

DRAM Statistics

Channel 0 RQ ROW_BUFFER_HIT:     363418
  ROW_BUFFER_MISS:    7668489
  AVG DBUS CONGESTED CYCLE: 6.824
Channel 0 WQ ROW_BUFFER_HIT:     594703
  ROW_BUFFER_MISS:    2668126
  FULL:          0
Channel 0 REFRESHES ISSUED:      58716
