[VMEM] WARNING: physical memory size is smaller than virtual memory size.
WARNING: option --warmup_instructions is deprecated. Use --warmup-instructions instead.
WARNING: option --simulation_instructions is deprecated. Use --simulation-instructions instead.

*** ChampSim Multicore Out-of-Order Simulator ***
Warmup Instructions: 200000000
Simulation Instructions: 1000000000
Number of CPUs: 1
Page size: 4096

Initialize SIGNATURE TABLE
ST_SET: 1
ST_WAY: 256
ST_TAG_BIT: 16

Initialize PATTERN TABLE
PT_SET: 512
PT_WAY: 4
SIG_DELTA_BIT: 7
C_SIG_BIT: 4
C_DELTA_BIT: 4

Initialize PREFETCH FILTER
FILTER_SET: 1024
Off-chip DRAM Size: 16 GiB Channels: 1 Width: 64-bit Data Rate: 3205 MT/s
Heartbeat CPU 0 instructions: 10000001 cycles: 2517012 heartbeat IPC: 3.973 cumulative IPC: 3.973 (Simulation time: 00 hr 00 min 48 sec)
Heartbeat CPU 0 instructions: 20000004 cycles: 5028856 heartbeat IPC: 3.981 cumulative IPC: 3.977 (Simulation time: 00 hr 01 min 36 sec)
Heartbeat CPU 0 instructions: 30000004 cycles: 7536339 heartbeat IPC: 3.988 cumulative IPC: 3.981 (Simulation time: 00 hr 02 min 24 sec)
Heartbeat CPU 0 instructions: 40000007 cycles: 10042649 heartbeat IPC: 3.99 cumulative IPC: 3.983 (Simulation time: 00 hr 03 min 11 sec)
Heartbeat CPU 0 instructions: 50000007 cycles: 12549277 heartbeat IPC: 3.989 cumulative IPC: 3.984 (Simulation time: 00 hr 03 min 59 sec)
Heartbeat CPU 0 instructions: 60000008 cycles: 15055386 heartbeat IPC: 3.99 cumulative IPC: 3.985 (Simulation time: 00 hr 04 min 46 sec)
Heartbeat CPU 0 instructions: 70000009 cycles: 17561146 heartbeat IPC: 3.991 cumulative IPC: 3.986 (Simulation time: 00 hr 05 min 34 sec)
Heartbeat CPU 0 instructions: 80000011 cycles: 20067446 heartbeat IPC: 3.99 cumulative IPC: 3.987 (Simulation time: 00 hr 06 min 22 sec)
Heartbeat CPU 0 instructions: 90000011 cycles: 22573158 heartbeat IPC: 3.991 cumulative IPC: 3.987 (Simulation time: 00 hr 07 min 10 sec)
Heartbeat CPU 0 instructions: 100000014 cycles: 25076358 heartbeat IPC: 3.995 cumulative IPC: 3.988 (Simulation time: 00 hr 07 min 58 sec)
Heartbeat CPU 0 instructions: 110000018 cycles: 27579114 heartbeat IPC: 3.996 cumulative IPC: 3.989 (Simulation time: 00 hr 08 min 46 sec)
Heartbeat CPU 0 instructions: 120000021 cycles: 30082164 heartbeat IPC: 3.995 cumulative IPC: 3.989 (Simulation time: 00 hr 09 min 35 sec)
Heartbeat CPU 0 instructions: 130000021 cycles: 32584811 heartbeat IPC: 3.996 cumulative IPC: 3.99 (Simulation time: 00 hr 10 min 23 sec)
Heartbeat CPU 0 instructions: 140000022 cycles: 35140888 heartbeat IPC: 3.912 cumulative IPC: 3.984 (Simulation time: 00 hr 11 min 12 sec)
Heartbeat CPU 0 instructions: 150000023 cycles: 37700679 heartbeat IPC: 3.907 cumulative IPC: 3.979 (Simulation time: 00 hr 12 min 01 sec)
Heartbeat CPU 0 instructions: 160000023 cycles: 40206751 heartbeat IPC: 3.99 cumulative IPC: 3.979 (Simulation time: 00 hr 12 min 49 sec)
Heartbeat CPU 0 instructions: 170000025 cycles: 42714860 heartbeat IPC: 3.987 cumulative IPC: 3.98 (Simulation time: 00 hr 13 min 37 sec)
Heartbeat CPU 0 instructions: 180000028 cycles: 45222489 heartbeat IPC: 3.988 cumulative IPC: 3.98 (Simulation time: 00 hr 14 min 26 sec)
Heartbeat CPU 0 instructions: 190000028 cycles: 47729643 heartbeat IPC: 3.989 cumulative IPC: 3.981 (Simulation time: 00 hr 15 min 14 sec)
Warmup finished CPU 0 instructions: 200000000 cycles: 50236611 cumulative IPC: 3.981 (Simulation time: 00 hr 16 min 02 sec)
Warmup complete CPU 0 instructions: 200000000 cycles: 50236611 cumulative IPC: 3.981 (Simulation time: 00 hr 16 min 02 sec)
Heartbeat CPU 0 instructions: 200000028 cycles: 50236618 heartbeat IPC: 3.989 cumulative IPC: 4 (Simulation time: 00 hr 16 min 02 sec)
Heartbeat CPU 0 instructions: 210000031 cycles: 54011344 heartbeat IPC: 2.649 cumulative IPC: 2.649 (Simulation time: 00 hr 17 min 00 sec)
Heartbeat CPU 0 instructions: 220000031 cycles: 57902923 heartbeat IPC: 2.57 cumulative IPC: 2.609 (Simulation time: 00 hr 17 min 59 sec)
Heartbeat CPU 0 instructions: 230000034 cycles: 61773232 heartbeat IPC: 2.584 cumulative IPC: 2.6 (Simulation time: 00 hr 18 min 58 sec)
Heartbeat CPU 0 instructions: 240000036 cycles: 65672698 heartbeat IPC: 2.564 cumulative IPC: 2.591 (Simulation time: 00 hr 19 min 57 sec)
Heartbeat CPU 0 instructions: 250000040 cycles: 69564821 heartbeat IPC: 2.569 cumulative IPC: 2.587 (Simulation time: 00 hr 20 min 56 sec)
Heartbeat CPU 0 instructions: 260000041 cycles: 73427461 heartbeat IPC: 2.589 cumulative IPC: 2.587 (Simulation time: 00 hr 21 min 55 sec)
Heartbeat CPU 0 instructions: 270000043 cycles: 77288313 heartbeat IPC: 2.59 cumulative IPC: 2.588 (Simulation time: 00 hr 22 min 54 sec)
Heartbeat CPU 0 instructions: 280000043 cycles: 81168353 heartbeat IPC: 2.577 cumulative IPC: 2.586 (Simulation time: 00 hr 23 min 53 sec)
Heartbeat CPU 0 instructions: 290000043 cycles: 85018836 heartbeat IPC: 2.597 cumulative IPC: 2.588 (Simulation time: 00 hr 24 min 52 sec)
Heartbeat CPU 0 instructions: 300000043 cycles: 88850446 heartbeat IPC: 2.61 cumulative IPC: 2.59 (Simulation time: 00 hr 25 min 50 sec)
Heartbeat CPU 0 instructions: 310000043 cycles: 92720008 heartbeat IPC: 2.584 cumulative IPC: 2.589 (Simulation time: 00 hr 26 min 49 sec)
Heartbeat CPU 0 instructions: 320000045 cycles: 96539414 heartbeat IPC: 2.618 cumulative IPC: 2.592 (Simulation time: 00 hr 27 min 47 sec)
Heartbeat CPU 0 instructions: 330000047 cycles: 100359259 heartbeat IPC: 2.618 cumulative IPC: 2.594 (Simulation time: 00 hr 28 min 46 sec)
Heartbeat CPU 0 instructions: 340000048 cycles: 104169350 heartbeat IPC: 2.625 cumulative IPC: 2.596 (Simulation time: 00 hr 29 min 45 sec)
Heartbeat CPU 0 instructions: 350000048 cycles: 107979217 heartbeat IPC: 2.625 cumulative IPC: 2.598 (Simulation time: 00 hr 30 min 45 sec)
Heartbeat CPU 0 instructions: 360000049 cycles: 111787932 heartbeat IPC: 2.626 cumulative IPC: 2.599 (Simulation time: 00 hr 31 min 46 sec)
Heartbeat CPU 0 instructions: 370000052 cycles: 115582017 heartbeat IPC: 2.636 cumulative IPC: 2.602 (Simulation time: 00 hr 32 min 45 sec)
Heartbeat CPU 0 instructions: 380000055 cycles: 119401182 heartbeat IPC: 2.618 cumulative IPC: 2.602 (Simulation time: 00 hr 33 min 44 sec)
Heartbeat CPU 0 instructions: 390000059 cycles: 123233148 heartbeat IPC: 2.61 cumulative IPC: 2.603 (Simulation time: 00 hr 34 min 43 sec)
Heartbeat CPU 0 instructions: 400000059 cycles: 130117447 heartbeat IPC: 1.453 cumulative IPC: 2.504 (Simulation time: 00 hr 36 min 22 sec)
Heartbeat CPU 0 instructions: 410000062 cycles: 133456476 heartbeat IPC: 2.995 cumulative IPC: 2.523 (Simulation time: 00 hr 37 min 19 sec)
Heartbeat CPU 0 instructions: 420000064 cycles: 137406031 heartbeat IPC: 2.532 cumulative IPC: 2.524 (Simulation time: 00 hr 38 min 22 sec)
Heartbeat CPU 0 instructions: 430000066 cycles: 141667918 heartbeat IPC: 2.346 cumulative IPC: 2.516 (Simulation time: 00 hr 39 min 27 sec)
Heartbeat CPU 0 instructions: 440000070 cycles: 145598398 heartbeat IPC: 2.544 cumulative IPC: 2.517 (Simulation time: 00 hr 40 min 29 sec)
Heartbeat CPU 0 instructions: 450000071 cycles: 149484253 heartbeat IPC: 2.573 cumulative IPC: 2.519 (Simulation time: 00 hr 41 min 31 sec)
Heartbeat CPU 0 instructions: 460000073 cycles: 153408655 heartbeat IPC: 2.548 cumulative IPC: 2.52 (Simulation time: 00 hr 42 min 33 sec)
Heartbeat CPU 0 instructions: 470000076 cycles: 157342522 heartbeat IPC: 2.542 cumulative IPC: 2.521 (Simulation time: 00 hr 43 min 36 sec)
Heartbeat CPU 0 instructions: 480000079 cycles: 161251229 heartbeat IPC: 2.558 cumulative IPC: 2.522 (Simulation time: 00 hr 44 min 38 sec)
Heartbeat CPU 0 instructions: 490000081 cycles: 165201848 heartbeat IPC: 2.531 cumulative IPC: 2.523 (Simulation time: 00 hr 45 min 40 sec)
Heartbeat CPU 0 instructions: 500000082 cycles: 169141516 heartbeat IPC: 2.538 cumulative IPC: 2.523 (Simulation time: 00 hr 46 min 43 sec)
Heartbeat CPU 0 instructions: 510000083 cycles: 173066693 heartbeat IPC: 2.548 cumulative IPC: 2.524 (Simulation time: 00 hr 47 min 45 sec)
Heartbeat CPU 0 instructions: 520000084 cycles: 176944516 heartbeat IPC: 2.579 cumulative IPC: 2.525 (Simulation time: 00 hr 48 min 47 sec)
Heartbeat CPU 0 instructions: 530000084 cycles: 180852189 heartbeat IPC: 2.559 cumulative IPC: 2.526 (Simulation time: 00 hr 49 min 49 sec)
Heartbeat CPU 0 instructions: 540000084 cycles: 184763852 heartbeat IPC: 2.556 cumulative IPC: 2.527 (Simulation time: 00 hr 50 min 51 sec)
Heartbeat CPU 0 instructions: 550000085 cycles: 188621738 heartbeat IPC: 2.592 cumulative IPC: 2.529 (Simulation time: 00 hr 51 min 53 sec)
Heartbeat CPU 0 instructions: 560000085 cycles: 192487228 heartbeat IPC: 2.587 cumulative IPC: 2.531 (Simulation time: 00 hr 52 min 56 sec)
Heartbeat CPU 0 instructions: 570000086 cycles: 199280950 heartbeat IPC: 1.472 cumulative IPC: 2.482 (Simulation time: 00 hr 54 min 36 sec)
Heartbeat CPU 0 instructions: 580000088 cycles: 202529781 heartbeat IPC: 3.078 cumulative IPC: 2.495 (Simulation time: 00 hr 55 min 36 sec)
Heartbeat CPU 0 instructions: 590000092 cycles: 206863156 heartbeat IPC: 2.308 cumulative IPC: 2.49 (Simulation time: 00 hr 56 min 42 sec)
Heartbeat CPU 0 instructions: 600000094 cycles: 210872500 heartbeat IPC: 2.494 cumulative IPC: 2.49 (Simulation time: 00 hr 57 min 45 sec)
Heartbeat CPU 0 instructions: 610000094 cycles: 214922785 heartbeat IPC: 2.469 cumulative IPC: 2.49 (Simulation time: 00 hr 58 min 50 sec)
Heartbeat CPU 0 instructions: 620000097 cycles: 218958780 heartbeat IPC: 2.478 cumulative IPC: 2.489 (Simulation time: 00 hr 59 min 54 sec)
Heartbeat CPU 0 instructions: 630000099 cycles: 222989880 heartbeat IPC: 2.481 cumulative IPC: 2.489 (Simulation time: 01 hr 00 min 58 sec)
Heartbeat CPU 0 instructions: 640000102 cycles: 227003917 heartbeat IPC: 2.491 cumulative IPC: 2.489 (Simulation time: 01 hr 02 min 01 sec)
Heartbeat CPU 0 instructions: 650000106 cycles: 230998094 heartbeat IPC: 2.504 cumulative IPC: 2.489 (Simulation time: 01 hr 03 min 05 sec)
Heartbeat CPU 0 instructions: 660000107 cycles: 234970469 heartbeat IPC: 2.517 cumulative IPC: 2.49 (Simulation time: 01 hr 04 min 09 sec)
Heartbeat CPU 0 instructions: 670000109 cycles: 241315088 heartbeat IPC: 1.576 cumulative IPC: 2.46 (Simulation time: 01 hr 05 min 44 sec)
Heartbeat CPU 0 instructions: 680000111 cycles: 244974275 heartbeat IPC: 2.733 cumulative IPC: 2.465 (Simulation time: 01 hr 06 min 46 sec)
Heartbeat CPU 0 instructions: 690000113 cycles: 249174273 heartbeat IPC: 2.381 cumulative IPC: 2.463 (Simulation time: 01 hr 07 min 51 sec)
Heartbeat CPU 0 instructions: 700000116 cycles: 253194480 heartbeat IPC: 2.487 cumulative IPC: 2.464 (Simulation time: 01 hr 08 min 55 sec)
Heartbeat CPU 0 instructions: 710000120 cycles: 257209051 heartbeat IPC: 2.491 cumulative IPC: 2.464 (Simulation time: 01 hr 09 min 59 sec)
Heartbeat CPU 0 instructions: 720000124 cycles: 261218158 heartbeat IPC: 2.494 cumulative IPC: 2.465 (Simulation time: 01 hr 11 min 03 sec)
Heartbeat CPU 0 instructions: 730000127 cycles: 265228841 heartbeat IPC: 2.493 cumulative IPC: 2.465 (Simulation time: 01 hr 12 min 08 sec)
Heartbeat CPU 0 instructions: 740000130 cycles: 269242841 heartbeat IPC: 2.491 cumulative IPC: 2.466 (Simulation time: 01 hr 13 min 12 sec)
Heartbeat CPU 0 instructions: 750000133 cycles: 273253787 heartbeat IPC: 2.493 cumulative IPC: 2.466 (Simulation time: 01 hr 14 min 16 sec)
Heartbeat CPU 0 instructions: 760000134 cycles: 280044122 heartbeat IPC: 1.473 cumulative IPC: 2.437 (Simulation time: 01 hr 15 min 55 sec)
Heartbeat CPU 0 instructions: 770000138 cycles: 283264803 heartbeat IPC: 3.105 cumulative IPC: 2.446 (Simulation time: 01 hr 16 min 51 sec)
Heartbeat CPU 0 instructions: 780000141 cycles: 287423938 heartbeat IPC: 2.404 cumulative IPC: 2.445 (Simulation time: 01 hr 17 min 56 sec)
Heartbeat CPU 0 instructions: 790000141 cycles: 291032309 heartbeat IPC: 2.771 cumulative IPC: 2.45 (Simulation time: 01 hr 18 min 54 sec)
Heartbeat CPU 0 instructions: 800000143 cycles: 294619634 heartbeat IPC: 2.788 cumulative IPC: 2.455 (Simulation time: 01 hr 19 min 52 sec)
Heartbeat CPU 0 instructions: 810000144 cycles: 298196264 heartbeat IPC: 2.796 cumulative IPC: 2.46 (Simulation time: 01 hr 20 min 50 sec)
Heartbeat CPU 0 instructions: 820000146 cycles: 301769987 heartbeat IPC: 2.798 cumulative IPC: 2.465 (Simulation time: 01 hr 21 min 49 sec)
Heartbeat CPU 0 instructions: 830000149 cycles: 305348981 heartbeat IPC: 2.794 cumulative IPC: 2.47 (Simulation time: 01 hr 22 min 47 sec)
Heartbeat CPU 0 instructions: 840000153 cycles: 308929054 heartbeat IPC: 2.793 cumulative IPC: 2.474 (Simulation time: 01 hr 23 min 45 sec)
Heartbeat CPU 0 instructions: 850000155 cycles: 312493059 heartbeat IPC: 2.806 cumulative IPC: 2.478 (Simulation time: 01 hr 24 min 43 sec)
Heartbeat CPU 0 instructions: 860000155 cycles: 316054658 heartbeat IPC: 2.808 cumulative IPC: 2.483 (Simulation time: 01 hr 25 min 41 sec)
Heartbeat CPU 0 instructions: 870000157 cycles: 319598008 heartbeat IPC: 2.822 cumulative IPC: 2.487 (Simulation time: 01 hr 26 min 39 sec)
Heartbeat CPU 0 instructions: 880000158 cycles: 323139868 heartbeat IPC: 2.823 cumulative IPC: 2.492 (Simulation time: 01 hr 27 min 36 sec)
Heartbeat CPU 0 instructions: 890000158 cycles: 326688146 heartbeat IPC: 2.818 cumulative IPC: 2.496 (Simulation time: 01 hr 28 min 34 sec)
Heartbeat CPU 0 instructions: 900000162 cycles: 330237107 heartbeat IPC: 2.818 cumulative IPC: 2.5 (Simulation time: 01 hr 29 min 31 sec)
Heartbeat CPU 0 instructions: 910000164 cycles: 333776520 heartbeat IPC: 2.825 cumulative IPC: 2.504 (Simulation time: 01 hr 30 min 28 sec)
Heartbeat CPU 0 instructions: 920000165 cycles: 337316331 heartbeat IPC: 2.825 cumulative IPC: 2.508 (Simulation time: 01 hr 31 min 26 sec)
Heartbeat CPU 0 instructions: 930000165 cycles: 340860131 heartbeat IPC: 2.822 cumulative IPC: 2.512 (Simulation time: 01 hr 32 min 23 sec)
Heartbeat CPU 0 instructions: 940000168 cycles: 344409725 heartbeat IPC: 2.817 cumulative IPC: 2.516 (Simulation time: 01 hr 33 min 20 sec)
Heartbeat CPU 0 instructions: 950000169 cycles: 347949479 heartbeat IPC: 2.825 cumulative IPC: 2.519 (Simulation time: 01 hr 34 min 17 sec)
Heartbeat CPU 0 instructions: 960000169 cycles: 351500995 heartbeat IPC: 2.816 cumulative IPC: 2.523 (Simulation time: 01 hr 35 min 15 sec)
Heartbeat CPU 0 instructions: 970000169 cycles: 355046457 heartbeat IPC: 2.821 cumulative IPC: 2.526 (Simulation time: 01 hr 36 min 12 sec)
Heartbeat CPU 0 instructions: 980000173 cycles: 358589978 heartbeat IPC: 2.822 cumulative IPC: 2.53 (Simulation time: 01 hr 37 min 11 sec)
Heartbeat CPU 0 instructions: 990000174 cycles: 362141108 heartbeat IPC: 2.816 cumulative IPC: 2.533 (Simulation time: 01 hr 38 min 11 sec)
Heartbeat CPU 0 instructions: 1000000175 cycles: 365700652 heartbeat IPC: 2.809 cumulative IPC: 2.536 (Simulation time: 01 hr 39 min 09 sec)
Heartbeat CPU 0 instructions: 1010000179 cycles: 369237282 heartbeat IPC: 2.828 cumulative IPC: 2.539 (Simulation time: 01 hr 40 min 06 sec)
Heartbeat CPU 0 instructions: 1020000180 cycles: 372648105 heartbeat IPC: 2.932 cumulative IPC: 2.543 (Simulation time: 01 hr 41 min 03 sec)
Heartbeat CPU 0 instructions: 1030000184 cycles: 375967008 heartbeat IPC: 3.013 cumulative IPC: 2.548 (Simulation time: 01 hr 42 min 00 sec)
Heartbeat CPU 0 instructions: 1040000184 cycles: 379284496 heartbeat IPC: 3.014 cumulative IPC: 2.553 (Simulation time: 01 hr 42 min 56 sec)
Heartbeat CPU 0 instructions: 1050000188 cycles: 382599210 heartbeat IPC: 3.017 cumulative IPC: 2.557 (Simulation time: 01 hr 43 min 53 sec)
Heartbeat CPU 0 instructions: 1060000192 cycles: 386166981 heartbeat IPC: 2.803 cumulative IPC: 2.56 (Simulation time: 01 hr 44 min 52 sec)
Heartbeat CPU 0 instructions: 1070000196 cycles: 389783601 heartbeat IPC: 2.765 cumulative IPC: 2.562 (Simulation time: 01 hr 45 min 52 sec)
Heartbeat CPU 0 instructions: 1080000198 cycles: 393409483 heartbeat IPC: 2.758 cumulative IPC: 2.564 (Simulation time: 01 hr 46 min 51 sec)
Heartbeat CPU 0 instructions: 1090000198 cycles: 397025544 heartbeat IPC: 2.765 cumulative IPC: 2.566 (Simulation time: 01 hr 47 min 51 sec)
Heartbeat CPU 0 instructions: 1100000200 cycles: 400630983 heartbeat IPC: 2.774 cumulative IPC: 2.569 (Simulation time: 01 hr 48 min 51 sec)
Heartbeat CPU 0 instructions: 1110000203 cycles: 404187412 heartbeat IPC: 2.812 cumulative IPC: 2.571 (Simulation time: 01 hr 49 min 49 sec)
Heartbeat CPU 0 instructions: 1120000204 cycles: 407737822 heartbeat IPC: 2.817 cumulative IPC: 2.573 (Simulation time: 01 hr 50 min 47 sec)
Heartbeat CPU 0 instructions: 1130000204 cycles: 411267722 heartbeat IPC: 2.833 cumulative IPC: 2.576 (Simulation time: 01 hr 51 min 45 sec)
Heartbeat CPU 0 instructions: 1140000204 cycles: 414799996 heartbeat IPC: 2.831 cumulative IPC: 2.578 (Simulation time: 01 hr 52 min 43 sec)
Heartbeat CPU 0 instructions: 1150000208 cycles: 418321960 heartbeat IPC: 2.839 cumulative IPC: 2.581 (Simulation time: 01 hr 53 min 41 sec)
Heartbeat CPU 0 instructions: 1160000212 cycles: 421855807 heartbeat IPC: 2.83 cumulative IPC: 2.583 (Simulation time: 01 hr 54 min 38 sec)
Heartbeat CPU 0 instructions: 1170000212 cycles: 425378758 heartbeat IPC: 2.839 cumulative IPC: 2.586 (Simulation time: 01 hr 55 min 36 sec)
Heartbeat CPU 0 instructions: 1180000214 cycles: 428901017 heartbeat IPC: 2.839 cumulative IPC: 2.588 (Simulation time: 01 hr 56 min 34 sec)
Heartbeat CPU 0 instructions: 1190000215 cycles: 432400911 heartbeat IPC: 2.857 cumulative IPC: 2.591 (Simulation time: 01 hr 57 min 32 sec)
Simulation finished CPU 0 instructions: 1000000004 cycles: 385662401 cumulative IPC: 2.593 (Simulation time: 01 hr 58 min 29 sec)
Simulation complete CPU 0 instructions: 1000000004 cycles: 385662401 cumulative IPC: 2.593 (Simulation time: 01 hr 58 min 29 sec)

ChampSim completed all CPUs

=== Simulation ===
CPU 0 runs /home/grads/r/raveena_manasi/ECEN_676/ChampSim/dpc3_traces/625.x264_s-18B.champsimtrace.xz

Region of Interest Statistics

CPU 0 cumulative IPC: 2.593 instructions: 1000000004 cycles: 385662401
CPU 0 Branch Prediction Accuracy: 96.65% MPKI: 1.253 Average ROB Occupancy at Mispredict: 147.4
Branch type MPKI
BRANCH_DIRECT_JUMP: 0.000467
BRANCH_INDIRECT: 0.000602
BRANCH_CONDITIONAL: 1.164
BRANCH_DIRECT_CALL: 0.000215
BRANCH_INDIRECT_CALL: 0.01407
BRANCH_RETURN: 0.07433

cpu0->cpu0_STLB TOTAL        ACCESS:    1071618 HIT:    1055902 MISS:      15716 MSHR_MERGE:          0
cpu0->cpu0_STLB LOAD         ACCESS:    1071618 HIT:    1055902 MISS:      15716 MSHR_MERGE:          0
cpu0->cpu0_STLB RFO          ACCESS:          0 HIT:          0 MISS:          0 MSHR_MERGE:          0
cpu0->cpu0_STLB PREFETCH     ACCESS:          0 HIT:          0 MISS:          0 MSHR_MERGE:          0
cpu0->cpu0_STLB WRITE        ACCESS:          0 HIT:          0 MISS:          0 MSHR_MERGE:          0
cpu0->cpu0_STLB TRANSLATION  ACCESS:          0 HIT:          0 MISS:          0 MSHR_MERGE:          0
cpu0->cpu0_STLB PREFETCH REQUESTED:          0 ISSUED:          0 USEFUL:          0 USELESS:          0
cpu0->cpu0_STLB AVERAGE MISS LATENCY: 150.8 cycles
cpu0->cpu0_L2C TOTAL        ACCESS:   12091979 HIT:    6483824 MISS:    5608155 MSHR_MERGE:     264156
cpu0->cpu0_L2C LOAD         ACCESS:    3017847 HIT:    2361309 MISS:     656538 MSHR_MERGE:      36526
cpu0->cpu0_L2C RFO          ACCESS:     570513 HIT:     173477 MISS:     397036 MSHR_MERGE:         17
cpu0->cpu0_L2C PREFETCH     ACCESS:    7793582 HIT:    3245812 MISS:    4547770 MSHR_MERGE:     227613
cpu0->cpu0_L2C WRITE        ACCESS:     701077 HIT:     700174 MISS:        903 MSHR_MERGE:          0
cpu0->cpu0_L2C TRANSLATION  ACCESS:       8960 HIT:       3052 MISS:       5908 MSHR_MERGE:          0
cpu0->cpu0_L2C PREFETCH REQUESTED:   10635061 ISSUED:    7793582 USEFUL:     241736 USELESS:       2205
cpu0->cpu0_L2C AVERAGE MISS LATENCY: 153.8 cycles
cpu0->cpu0_L1I TOTAL        ACCESS:  152903136 HIT:  150080163 MISS:    2822973 MSHR_MERGE:    1104778
cpu0->cpu0_L1I LOAD         ACCESS:  152903136 HIT:  150080163 MISS:    2822973 MSHR_MERGE:    1104778
cpu0->cpu0_L1I RFO          ACCESS:          0 HIT:          0 MISS:          0 MSHR_MERGE:          0
cpu0->cpu0_L1I PREFETCH     ACCESS:          0 HIT:          0 MISS:          0 MSHR_MERGE:          0
cpu0->cpu0_L1I WRITE        ACCESS:          0 HIT:          0 MISS:          0 MSHR_MERGE:          0
cpu0->cpu0_L1I TRANSLATION  ACCESS:          0 HIT:          0 MISS:          0 MSHR_MERGE:          0
cpu0->cpu0_L1I PREFETCH REQUESTED:          0 ISSUED:          0 USEFUL:          0 USELESS:          0
cpu0->cpu0_L1I AVERAGE MISS LATENCY: 8.13 cycles
cpu0->cpu0_L1D TOTAL        ACCESS:  202896145 HIT:  196736349 MISS:    6159796 MSHR_MERGE:    4280649
cpu0->cpu0_L1D LOAD         ACCESS:  126476440 HIT:  123680811 MISS:    2795629 MSHR_MERGE:    1495969
cpu0->cpu0_L1D RFO          ACCESS:          0 HIT:          0 MISS:          0 MSHR_MERGE:          0
cpu0->cpu0_L1D PREFETCH     ACCESS:          0 HIT:          0 MISS:          0 MSHR_MERGE:          0
cpu0->cpu0_L1D WRITE        ACCESS:   76403929 HIT:   73048815 MISS:    3355114 MSHR_MERGE:    2784587
cpu0->cpu0_L1D TRANSLATION  ACCESS:      15776 HIT:       6723 MISS:       9053 MSHR_MERGE:         93
cpu0->cpu0_L1D PREFETCH REQUESTED:          0 ISSUED:          0 USEFUL:          0 USELESS:          0
cpu0->cpu0_L1D AVERAGE MISS LATENCY: 94.63 cycles
cpu0->cpu0_ITLB TOTAL        ACCESS:  133506474 HIT:  133502138 MISS:       4336 MSHR_MERGE:       2869
cpu0->cpu0_ITLB LOAD         ACCESS:  133506474 HIT:  133502138 MISS:       4336 MSHR_MERGE:       2869
cpu0->cpu0_ITLB RFO          ACCESS:          0 HIT:          0 MISS:          0 MSHR_MERGE:          0
cpu0->cpu0_ITLB PREFETCH     ACCESS:          0 HIT:          0 MISS:          0 MSHR_MERGE:          0
cpu0->cpu0_ITLB WRITE        ACCESS:          0 HIT:          0 MISS:          0 MSHR_MERGE:          0
cpu0->cpu0_ITLB TRANSLATION  ACCESS:          0 HIT:          0 MISS:          0 MSHR_MERGE:          0
cpu0->cpu0_ITLB PREFETCH REQUESTED:          0 ISSUED:          0 USEFUL:          0 USELESS:          0
cpu0->cpu0_ITLB AVERAGE MISS LATENCY: 56.18 cycles
cpu0->cpu0_DTLB TOTAL        ACCESS:  190352597 HIT:  188224278 MISS:    2128319 MSHR_MERGE:    1058168
cpu0->cpu0_DTLB LOAD         ACCESS:  190352597 HIT:  188224278 MISS:    2128319 MSHR_MERGE:    1058168
cpu0->cpu0_DTLB RFO          ACCESS:          0 HIT:          0 MISS:          0 MSHR_MERGE:          0
cpu0->cpu0_DTLB PREFETCH     ACCESS:          0 HIT:          0 MISS:          0 MSHR_MERGE:          0
cpu0->cpu0_DTLB WRITE        ACCESS:          0 HIT:          0 MISS:          0 MSHR_MERGE:          0
cpu0->cpu0_DTLB TRANSLATION  ACCESS:          0 HIT:          0 MISS:          0 MSHR_MERGE:          0
cpu0->cpu0_DTLB PREFETCH REQUESTED:          0 ISSUED:          0 USEFUL:          0 USELESS:          0
cpu0->cpu0_DTLB AVERAGE MISS LATENCY: 7.16 cycles
cpu0->LLC TOTAL        ACCESS:    5802028 HIT:    3567504 MISS:    2234524 MSHR_MERGE:    1128415
cpu0->LLC LOAD         ACCESS:     620012 HIT:     425267 MISS:     194745 MSHR_MERGE:      73742
cpu0->LLC RFO          ACCESS:     397019 HIT:      10545 MISS:     386474 MSHR_MERGE:       1575
cpu0->LLC PREFETCH     ACCESS:    4294437 HIT:    2644677 MISS:    1649760 MSHR_MERGE:    1053098
cpu0->LLC WRITE        ACCESS:     484652 HIT:     483214 MISS:       1438 MSHR_MERGE:          0
cpu0->LLC TRANSLATION  ACCESS:       5908 HIT:       3801 MISS:       2107 MSHR_MERGE:          0
cpu0->LLC PREFETCH REQUESTED:          0 ISSUED:          0 USEFUL:          0 USELESS:          0
cpu0->LLC AVERAGE MISS LATENCY: 242.8 cycles

DRAM Statistics

Channel 0 RQ ROW_BUFFER_HIT:      22585
  ROW_BUFFER_MISS:    1081919
  AVG DBUS CONGESTED CYCLE: 8.989
Channel 0 WQ ROW_BUFFER_HIT:      67743
  ROW_BUFFER_MISS:     424678
  FULL:          0
Channel 0 REFRESHES ISSUED:      32138
