[VMEM] WARNING: physical memory size is smaller than virtual memory size.
WARNING: option --warmup_instructions is deprecated. Use --warmup-instructions instead.
WARNING: option --simulation_instructions is deprecated. Use --simulation-instructions instead.

*** ChampSim Multicore Out-of-Order Simulator ***
Warmup Instructions: 200000000
Simulation Instructions: 1000000000
Number of CPUs: 1
Page size: 4096

Initialize SIGNATURE TABLE
ST_SET: 1
ST_WAY: 256
ST_TAG_BIT: 16

Initialize PATTERN TABLE
PT_SET: 512
PT_WAY: 4
SIG_DELTA_BIT: 7
C_SIG_BIT: 4
C_DELTA_BIT: 4

Initialize PREFETCH FILTER
FILTER_SET: 1024
Off-chip DRAM Size: 16 GiB Channels: 1 Width: 64-bit Data Rate: 3205 MT/s
Heartbeat CPU 0 instructions: 10000002 cycles: 2712857 heartbeat IPC: 3.686 cumulative IPC: 3.686 (Simulation time: 00 hr 00 min 50 sec)
Heartbeat CPU 0 instructions: 20000005 cycles: 5374533 heartbeat IPC: 3.757 cumulative IPC: 3.721 (Simulation time: 00 hr 01 min 39 sec)
Heartbeat CPU 0 instructions: 30000006 cycles: 8035039 heartbeat IPC: 3.759 cumulative IPC: 3.734 (Simulation time: 00 hr 02 min 29 sec)
Heartbeat CPU 0 instructions: 40000007 cycles: 10699358 heartbeat IPC: 3.753 cumulative IPC: 3.739 (Simulation time: 00 hr 03 min 18 sec)
Heartbeat CPU 0 instructions: 50000011 cycles: 13364770 heartbeat IPC: 3.752 cumulative IPC: 3.741 (Simulation time: 00 hr 04 min 07 sec)
Heartbeat CPU 0 instructions: 60000011 cycles: 16031414 heartbeat IPC: 3.75 cumulative IPC: 3.743 (Simulation time: 00 hr 04 min 58 sec)
Heartbeat CPU 0 instructions: 70000011 cycles: 18702369 heartbeat IPC: 3.744 cumulative IPC: 3.743 (Simulation time: 00 hr 05 min 47 sec)
Heartbeat CPU 0 instructions: 80000011 cycles: 21310264 heartbeat IPC: 3.835 cumulative IPC: 3.754 (Simulation time: 00 hr 06 min 36 sec)
Heartbeat CPU 0 instructions: 90000014 cycles: 23942131 heartbeat IPC: 3.8 cumulative IPC: 3.759 (Simulation time: 00 hr 07 min 23 sec)
Heartbeat CPU 0 instructions: 100000016 cycles: 26523877 heartbeat IPC: 3.873 cumulative IPC: 3.77 (Simulation time: 00 hr 08 min 12 sec)
Heartbeat CPU 0 instructions: 110000018 cycles: 29143793 heartbeat IPC: 3.817 cumulative IPC: 3.774 (Simulation time: 00 hr 09 min 03 sec)
Heartbeat CPU 0 instructions: 120000021 cycles: 31986752 heartbeat IPC: 3.517 cumulative IPC: 3.752 (Simulation time: 00 hr 09 min 48 sec)
Heartbeat CPU 0 instructions: 130000024 cycles: 34745376 heartbeat IPC: 3.625 cumulative IPC: 3.742 (Simulation time: 00 hr 10 min 35 sec)
Heartbeat CPU 0 instructions: 140000025 cycles: 37635906 heartbeat IPC: 3.46 cumulative IPC: 3.72 (Simulation time: 00 hr 11 min 15 sec)
Heartbeat CPU 0 instructions: 150000025 cycles: 40356146 heartbeat IPC: 3.676 cumulative IPC: 3.717 (Simulation time: 00 hr 11 min 51 sec)
Heartbeat CPU 0 instructions: 160000029 cycles: 43264703 heartbeat IPC: 3.438 cumulative IPC: 3.698 (Simulation time: 00 hr 12 min 30 sec)
Heartbeat CPU 0 instructions: 170000032 cycles: 45985006 heartbeat IPC: 3.676 cumulative IPC: 3.697 (Simulation time: 00 hr 13 min 11 sec)
Heartbeat CPU 0 instructions: 180000036 cycles: 48647939 heartbeat IPC: 3.755 cumulative IPC: 3.7 (Simulation time: 00 hr 13 min 56 sec)
Heartbeat CPU 0 instructions: 190000037 cycles: 51265461 heartbeat IPC: 3.82 cumulative IPC: 3.706 (Simulation time: 00 hr 14 min 45 sec)
Warmup finished CPU 0 instructions: 200000002 cycles: 53884898 cumulative IPC: 3.712 (Simulation time: 00 hr 15 min 34 sec)
Warmup complete CPU 0 instructions: 200000002 cycles: 53884898 cumulative IPC: 3.712 (Simulation time: 00 hr 15 min 34 sec)
Heartbeat CPU 0 instructions: 200000038 cycles: 53884907 heartbeat IPC: 3.818 cumulative IPC: 4 (Simulation time: 00 hr 15 min 34 sec)
Heartbeat CPU 0 instructions: 210000040 cycles: 58653531 heartbeat IPC: 2.097 cumulative IPC: 2.097 (Simulation time: 00 hr 16 min 41 sec)
Heartbeat CPU 0 instructions: 220000043 cycles: 63433543 heartbeat IPC: 2.092 cumulative IPC: 2.095 (Simulation time: 00 hr 17 min 48 sec)
Heartbeat CPU 0 instructions: 230000045 cycles: 68255201 heartbeat IPC: 2.074 cumulative IPC: 2.088 (Simulation time: 00 hr 18 min 56 sec)
Heartbeat CPU 0 instructions: 240000046 cycles: 73048888 heartbeat IPC: 2.086 cumulative IPC: 2.087 (Simulation time: 00 hr 20 min 04 sec)
Heartbeat CPU 0 instructions: 250000049 cycles: 77678393 heartbeat IPC: 2.16 cumulative IPC: 2.101 (Simulation time: 00 hr 21 min 10 sec)
Heartbeat CPU 0 instructions: 260000049 cycles: 81999806 heartbeat IPC: 2.314 cumulative IPC: 2.134 (Simulation time: 00 hr 22 min 10 sec)
Heartbeat CPU 0 instructions: 270000051 cycles: 87148515 heartbeat IPC: 1.942 cumulative IPC: 2.104 (Simulation time: 00 hr 23 min 11 sec)
Heartbeat CPU 0 instructions: 280000051 cycles: 92058669 heartbeat IPC: 2.037 cumulative IPC: 2.096 (Simulation time: 00 hr 24 min 19 sec)
Heartbeat CPU 0 instructions: 290000055 cycles: 97301164 heartbeat IPC: 1.907 cumulative IPC: 2.073 (Simulation time: 00 hr 25 min 37 sec)
Heartbeat CPU 0 instructions: 300000055 cycles: 102694028 heartbeat IPC: 1.854 cumulative IPC: 2.049 (Simulation time: 00 hr 26 min 53 sec)
Heartbeat CPU 0 instructions: 310000056 cycles: 107617457 heartbeat IPC: 2.031 cumulative IPC: 2.047 (Simulation time: 00 hr 27 min 56 sec)
Heartbeat CPU 0 instructions: 320000059 cycles: 112366902 heartbeat IPC: 2.106 cumulative IPC: 2.052 (Simulation time: 00 hr 28 min 55 sec)
Heartbeat CPU 0 instructions: 330000063 cycles: 116514421 heartbeat IPC: 2.411 cumulative IPC: 2.076 (Simulation time: 00 hr 29 min 49 sec)
Heartbeat CPU 0 instructions: 340000066 cycles: 121328167 heartbeat IPC: 2.077 cumulative IPC: 2.076 (Simulation time: 00 hr 30 min 48 sec)
Heartbeat CPU 0 instructions: 350000066 cycles: 125374093 heartbeat IPC: 2.472 cumulative IPC: 2.098 (Simulation time: 00 hr 31 min 41 sec)
Heartbeat CPU 0 instructions: 360000068 cycles: 130403404 heartbeat IPC: 1.988 cumulative IPC: 2.091 (Simulation time: 00 hr 32 min 49 sec)
Heartbeat CPU 0 instructions: 370000071 cycles: 135388059 heartbeat IPC: 2.006 cumulative IPC: 2.086 (Simulation time: 00 hr 33 min 58 sec)
Heartbeat CPU 0 instructions: 380000071 cycles: 140383397 heartbeat IPC: 2.002 cumulative IPC: 2.081 (Simulation time: 00 hr 35 min 07 sec)
Heartbeat CPU 0 instructions: 390000074 cycles: 145423091 heartbeat IPC: 1.984 cumulative IPC: 2.076 (Simulation time: 00 hr 36 min 16 sec)
Heartbeat CPU 0 instructions: 400000075 cycles: 150406188 heartbeat IPC: 2.007 cumulative IPC: 2.072 (Simulation time: 00 hr 37 min 25 sec)
Heartbeat CPU 0 instructions: 410000077 cycles: 155406819 heartbeat IPC: 2 cumulative IPC: 2.069 (Simulation time: 00 hr 38 min 33 sec)
Heartbeat CPU 0 instructions: 420000080 cycles: 160351661 heartbeat IPC: 2.022 cumulative IPC: 2.066 (Simulation time: 00 hr 39 min 41 sec)
Heartbeat CPU 0 instructions: 430000081 cycles: 165177053 heartbeat IPC: 2.072 cumulative IPC: 2.067 (Simulation time: 00 hr 40 min 48 sec)
Heartbeat CPU 0 instructions: 440000085 cycles: 169394308 heartbeat IPC: 2.371 cumulative IPC: 2.078 (Simulation time: 00 hr 41 min 47 sec)
Heartbeat CPU 0 instructions: 450000085 cycles: 174880440 heartbeat IPC: 1.823 cumulative IPC: 2.066 (Simulation time: 00 hr 42 min 52 sec)
Heartbeat CPU 0 instructions: 460000085 cycles: 179832440 heartbeat IPC: 2.019 cumulative IPC: 2.064 (Simulation time: 00 hr 43 min 59 sec)
Heartbeat CPU 0 instructions: 470000087 cycles: 184949821 heartbeat IPC: 1.954 cumulative IPC: 2.06 (Simulation time: 00 hr 45 min 15 sec)
Heartbeat CPU 0 instructions: 480000089 cycles: 190534680 heartbeat IPC: 1.791 cumulative IPC: 2.049 (Simulation time: 00 hr 46 min 39 sec)
Heartbeat CPU 0 instructions: 490000092 cycles: 195102354 heartbeat IPC: 2.189 cumulative IPC: 2.054 (Simulation time: 00 hr 47 min 35 sec)
Heartbeat CPU 0 instructions: 500000094 cycles: 200316333 heartbeat IPC: 1.918 cumulative IPC: 2.049 (Simulation time: 00 hr 48 min 42 sec)
Heartbeat CPU 0 instructions: 510000096 cycles: 204112988 heartbeat IPC: 2.634 cumulative IPC: 2.064 (Simulation time: 00 hr 49 min 31 sec)
Heartbeat CPU 0 instructions: 520000099 cycles: 209075075 heartbeat IPC: 2.015 cumulative IPC: 2.062 (Simulation time: 00 hr 50 min 36 sec)
Heartbeat CPU 0 instructions: 530000099 cycles: 212956369 heartbeat IPC: 2.576 cumulative IPC: 2.075 (Simulation time: 00 hr 51 min 25 sec)
Heartbeat CPU 0 instructions: 540000099 cycles: 217793398 heartbeat IPC: 2.067 cumulative IPC: 2.074 (Simulation time: 00 hr 52 min 31 sec)
Heartbeat CPU 0 instructions: 550000099 cycles: 222730793 heartbeat IPC: 2.025 cumulative IPC: 2.073 (Simulation time: 00 hr 53 min 39 sec)
Heartbeat CPU 0 instructions: 560000102 cycles: 227663127 heartbeat IPC: 2.027 cumulative IPC: 2.072 (Simulation time: 00 hr 54 min 47 sec)
Heartbeat CPU 0 instructions: 570000102 cycles: 232598781 heartbeat IPC: 2.026 cumulative IPC: 2.07 (Simulation time: 00 hr 55 min 56 sec)
Heartbeat CPU 0 instructions: 580000103 cycles: 237569366 heartbeat IPC: 2.012 cumulative IPC: 2.069 (Simulation time: 00 hr 57 min 05 sec)
Heartbeat CPU 0 instructions: 590000105 cycles: 242532176 heartbeat IPC: 2.015 cumulative IPC: 2.067 (Simulation time: 00 hr 58 min 13 sec)
Heartbeat CPU 0 instructions: 600000105 cycles: 247487135 heartbeat IPC: 2.018 cumulative IPC: 2.066 (Simulation time: 00 hr 59 min 21 sec)
Heartbeat CPU 0 instructions: 610000107 cycles: 252489326 heartbeat IPC: 1.999 cumulative IPC: 2.064 (Simulation time: 01 hr 00 min 29 sec)
Heartbeat CPU 0 instructions: 620000109 cycles: 256498785 heartbeat IPC: 2.494 cumulative IPC: 2.073 (Simulation time: 01 hr 01 min 26 sec)
Heartbeat CPU 0 instructions: 630000113 cycles: 262164880 heartbeat IPC: 1.765 cumulative IPC: 2.065 (Simulation time: 01 hr 02 min 35 sec)
Heartbeat CPU 0 instructions: 640000115 cycles: 267472889 heartbeat IPC: 1.884 cumulative IPC: 2.06 (Simulation time: 01 hr 03 min 40 sec)
Heartbeat CPU 0 instructions: 650000117 cycles: 272532342 heartbeat IPC: 1.976 cumulative IPC: 2.058 (Simulation time: 01 hr 04 min 53 sec)
Heartbeat CPU 0 instructions: 660000119 cycles: 278466285 heartbeat IPC: 1.685 cumulative IPC: 2.048 (Simulation time: 01 hr 06 min 26 sec)
Heartbeat CPU 0 instructions: 670000122 cycles: 282913857 heartbeat IPC: 2.248 cumulative IPC: 2.052 (Simulation time: 01 hr 07 min 19 sec)
Heartbeat CPU 0 instructions: 680000124 cycles: 288767832 heartbeat IPC: 1.708 cumulative IPC: 2.044 (Simulation time: 01 hr 08 min 33 sec)
Heartbeat CPU 0 instructions: 690000126 cycles: 292165188 heartbeat IPC: 2.943 cumulative IPC: 2.056 (Simulation time: 01 hr 09 min 14 sec)
Heartbeat CPU 0 instructions: 700000126 cycles: 296551998 heartbeat IPC: 2.28 cumulative IPC: 2.06 (Simulation time: 01 hr 10 min 11 sec)
Heartbeat CPU 0 instructions: 710000128 cycles: 301450577 heartbeat IPC: 2.041 cumulative IPC: 2.06 (Simulation time: 01 hr 11 min 12 sec)
Heartbeat CPU 0 instructions: 720000132 cycles: 305811843 heartbeat IPC: 2.293 cumulative IPC: 2.064 (Simulation time: 01 hr 12 min 10 sec)
Heartbeat CPU 0 instructions: 730000132 cycles: 311168294 heartbeat IPC: 1.867 cumulative IPC: 2.06 (Simulation time: 01 hr 13 min 22 sec)
Heartbeat CPU 0 instructions: 740000132 cycles: 316108061 heartbeat IPC: 2.024 cumulative IPC: 2.059 (Simulation time: 01 hr 14 min 30 sec)
Heartbeat CPU 0 instructions: 750000132 cycles: 321078934 heartbeat IPC: 2.012 cumulative IPC: 2.058 (Simulation time: 01 hr 15 min 38 sec)
Heartbeat CPU 0 instructions: 760000135 cycles: 326027371 heartbeat IPC: 2.021 cumulative IPC: 2.058 (Simulation time: 01 hr 16 min 46 sec)
Heartbeat CPU 0 instructions: 770000138 cycles: 330977516 heartbeat IPC: 2.02 cumulative IPC: 2.057 (Simulation time: 01 hr 17 min 55 sec)
Heartbeat CPU 0 instructions: 780000139 cycles: 335964108 heartbeat IPC: 2.005 cumulative IPC: 2.056 (Simulation time: 01 hr 19 min 03 sec)
Heartbeat CPU 0 instructions: 790000143 cycles: 341043552 heartbeat IPC: 1.969 cumulative IPC: 2.055 (Simulation time: 01 hr 20 min 11 sec)
Heartbeat CPU 0 instructions: 800000146 cycles: 345485947 heartbeat IPC: 2.251 cumulative IPC: 2.058 (Simulation time: 01 hr 21 min 12 sec)
Heartbeat CPU 0 instructions: 810000148 cycles: 350265993 heartbeat IPC: 2.092 cumulative IPC: 2.058 (Simulation time: 01 hr 22 min 16 sec)
Heartbeat CPU 0 instructions: 820000150 cycles: 355679489 heartbeat IPC: 1.847 cumulative IPC: 2.054 (Simulation time: 01 hr 23 min 19 sec)
Heartbeat CPU 0 instructions: 830000154 cycles: 360626891 heartbeat IPC: 2.021 cumulative IPC: 2.054 (Simulation time: 01 hr 24 min 29 sec)
Heartbeat CPU 0 instructions: 840000154 cycles: 365720936 heartbeat IPC: 1.963 cumulative IPC: 2.052 (Simulation time: 01 hr 25 min 45 sec)
Heartbeat CPU 0 instructions: 850000158 cycles: 371108878 heartbeat IPC: 1.856 cumulative IPC: 2.049 (Simulation time: 01 hr 26 min 58 sec)
Heartbeat CPU 0 instructions: 860000159 cycles: 376173522 heartbeat IPC: 1.974 cumulative IPC: 2.048 (Simulation time: 01 hr 28 min 02 sec)
Heartbeat CPU 0 instructions: 870000159 cycles: 380872022 heartbeat IPC: 2.128 cumulative IPC: 2.049 (Simulation time: 01 hr 29 min 00 sec)
Heartbeat CPU 0 instructions: 880000162 cycles: 385062170 heartbeat IPC: 2.387 cumulative IPC: 2.053 (Simulation time: 01 hr 29 min 56 sec)
Heartbeat CPU 0 instructions: 890000162 cycles: 390071013 heartbeat IPC: 1.996 cumulative IPC: 2.052 (Simulation time: 01 hr 30 min 57 sec)
Heartbeat CPU 0 instructions: 900000165 cycles: 394155041 heartbeat IPC: 2.449 cumulative IPC: 2.057 (Simulation time: 01 hr 31 min 51 sec)
Heartbeat CPU 0 instructions: 910000165 cycles: 399168290 heartbeat IPC: 1.995 cumulative IPC: 2.056 (Simulation time: 01 hr 32 min 57 sec)
Heartbeat CPU 0 instructions: 920000165 cycles: 404090253 heartbeat IPC: 2.032 cumulative IPC: 2.056 (Simulation time: 01 hr 34 min 05 sec)
Heartbeat CPU 0 instructions: 930000165 cycles: 408971753 heartbeat IPC: 2.049 cumulative IPC: 2.056 (Simulation time: 01 hr 35 min 13 sec)
Heartbeat CPU 0 instructions: 940000165 cycles: 413821705 heartbeat IPC: 2.062 cumulative IPC: 2.056 (Simulation time: 01 hr 36 min 21 sec)
Heartbeat CPU 0 instructions: 950000165 cycles: 418664181 heartbeat IPC: 2.065 cumulative IPC: 2.056 (Simulation time: 01 hr 37 min 29 sec)
Heartbeat CPU 0 instructions: 960000169 cycles: 423507932 heartbeat IPC: 2.065 cumulative IPC: 2.056 (Simulation time: 01 hr 38 min 36 sec)
Heartbeat CPU 0 instructions: 970000169 cycles: 428508049 heartbeat IPC: 2 cumulative IPC: 2.055 (Simulation time: 01 hr 39 min 45 sec)
Heartbeat CPU 0 instructions: 980000172 cycles: 433518771 heartbeat IPC: 1.996 cumulative IPC: 2.055 (Simulation time: 01 hr 40 min 52 sec)
Heartbeat CPU 0 instructions: 990000172 cycles: 437659087 heartbeat IPC: 2.415 cumulative IPC: 2.059 (Simulation time: 01 hr 41 min 49 sec)
Heartbeat CPU 0 instructions: 1000000173 cycles: 443153767 heartbeat IPC: 1.82 cumulative IPC: 2.055 (Simulation time: 01 hr 42 min 53 sec)
Heartbeat CPU 0 instructions: 1010000176 cycles: 448187031 heartbeat IPC: 1.987 cumulative IPC: 2.054 (Simulation time: 01 hr 44 min 00 sec)
Heartbeat CPU 0 instructions: 1020000180 cycles: 453341677 heartbeat IPC: 1.94 cumulative IPC: 2.053 (Simulation time: 01 hr 45 min 15 sec)
Heartbeat CPU 0 instructions: 1030000180 cycles: 459052724 heartbeat IPC: 1.751 cumulative IPC: 2.049 (Simulation time: 01 hr 46 min 39 sec)
Heartbeat CPU 0 instructions: 1040000180 cycles: 463764986 heartbeat IPC: 2.122 cumulative IPC: 2.049 (Simulation time: 01 hr 47 min 34 sec)
Heartbeat CPU 0 instructions: 1050000181 cycles: 469283830 heartbeat IPC: 1.812 cumulative IPC: 2.046 (Simulation time: 01 hr 48 min 43 sec)
Heartbeat CPU 0 instructions: 1060000182 cycles: 473032172 heartbeat IPC: 2.668 cumulative IPC: 2.052 (Simulation time: 01 hr 49 min 30 sec)
Heartbeat CPU 0 instructions: 1070000185 cycles: 478240553 heartbeat IPC: 1.92 cumulative IPC: 2.05 (Simulation time: 01 hr 50 min 37 sec)
Heartbeat CPU 0 instructions: 1080000185 cycles: 482204776 heartbeat IPC: 2.523 cumulative IPC: 2.055 (Simulation time: 01 hr 51 min 25 sec)
Heartbeat CPU 0 instructions: 1090000186 cycles: 486903090 heartbeat IPC: 2.128 cumulative IPC: 2.055 (Simulation time: 01 hr 52 min 28 sec)
Heartbeat CPU 0 instructions: 1100000188 cycles: 491933585 heartbeat IPC: 1.988 cumulative IPC: 2.055 (Simulation time: 01 hr 53 min 37 sec)
Heartbeat CPU 0 instructions: 1110000191 cycles: 496836831 heartbeat IPC: 2.039 cumulative IPC: 2.054 (Simulation time: 01 hr 54 min 45 sec)
Heartbeat CPU 0 instructions: 1120000191 cycles: 501740187 heartbeat IPC: 2.039 cumulative IPC: 2.054 (Simulation time: 01 hr 55 min 53 sec)
Heartbeat CPU 0 instructions: 1130000191 cycles: 506719048 heartbeat IPC: 2.008 cumulative IPC: 2.054 (Simulation time: 01 hr 57 min 01 sec)
Heartbeat CPU 0 instructions: 1140000192 cycles: 511669742 heartbeat IPC: 2.02 cumulative IPC: 2.053 (Simulation time: 01 hr 58 min 09 sec)
Heartbeat CPU 0 instructions: 1150000195 cycles: 516651088 heartbeat IPC: 2.007 cumulative IPC: 2.053 (Simulation time: 01 hr 59 min 17 sec)
Heartbeat CPU 0 instructions: 1160000195 cycles: 521772933 heartbeat IPC: 1.952 cumulative IPC: 2.052 (Simulation time: 02 hr 00 min 24 sec)
Heartbeat CPU 0 instructions: 1170000197 cycles: 525971985 heartbeat IPC: 2.381 cumulative IPC: 2.055 (Simulation time: 02 hr 01 min 22 sec)
Heartbeat CPU 0 instructions: 1180000197 cycles: 531199175 heartbeat IPC: 1.913 cumulative IPC: 2.053 (Simulation time: 02 hr 02 min 28 sec)
Heartbeat CPU 0 instructions: 1190000197 cycles: 536504798 heartbeat IPC: 1.885 cumulative IPC: 2.051 (Simulation time: 02 hr 03 min 31 sec)
Simulation finished CPU 0 instructions: 1000000000 cycles: 487643515 cumulative IPC: 2.051 (Simulation time: 02 hr 04 min 42 sec)
Simulation complete CPU 0 instructions: 1000000000 cycles: 487643515 cumulative IPC: 2.051 (Simulation time: 02 hr 04 min 42 sec)

ChampSim completed all CPUs

=== Simulation ===
CPU 0 runs /home/grads/b/bhavishya_k_s/ecen676/ChampSim/dpc3_traces/628.pop2_s-17B.champsimtrace.xz

Region of Interest Statistics

CPU 0 cumulative IPC: 2.051 instructions: 1000000000 cycles: 487643515
CPU 0 Branch Prediction Accuracy: 97.22% MPKI: 4.223 Average ROB Occupancy at Mispredict: 77.62
Branch type MPKI
BRANCH_DIRECT_JUMP: 0.02936
BRANCH_INDIRECT: 0.000694
BRANCH_CONDITIONAL: 4.119
BRANCH_DIRECT_CALL: 1e-06
BRANCH_INDIRECT_CALL: 0
BRANCH_RETURN: 0.07342

cpu0->cpu0_STLB TOTAL        ACCESS:     492314 HIT:     445050 MISS:      47264 MSHR_MERGE:          0
cpu0->cpu0_STLB LOAD         ACCESS:     492314 HIT:     445050 MISS:      47264 MSHR_MERGE:          0
cpu0->cpu0_STLB RFO          ACCESS:          0 HIT:          0 MISS:          0 MSHR_MERGE:          0
cpu0->cpu0_STLB PREFETCH     ACCESS:          0 HIT:          0 MISS:          0 MSHR_MERGE:          0
cpu0->cpu0_STLB WRITE        ACCESS:          0 HIT:          0 MISS:          0 MSHR_MERGE:          0
cpu0->cpu0_STLB TRANSLATION  ACCESS:          0 HIT:          0 MISS:          0 MSHR_MERGE:          0
cpu0->cpu0_STLB PREFETCH REQUESTED:          0 ISSUED:          0 USEFUL:          0 USELESS:          0
cpu0->cpu0_STLB AVERAGE MISS LATENCY: 273.9 cycles
cpu0->cpu0_L2C TOTAL        ACCESS:   87404292 HIT:   49308856 MISS:   38095436 MSHR_MERGE:    1008545
cpu0->cpu0_L2C LOAD         ACCESS:   10400367 HIT:    7505367 MISS:    2895000 MSHR_MERGE:     413153
cpu0->cpu0_L2C RFO          ACCESS:    4999833 HIT:    2942856 MISS:    2056977 MSHR_MERGE:          3
cpu0->cpu0_L2C PREFETCH     ACCESS:   65224041 HIT:   32113633 MISS:   33110408 MSHR_MERGE:     595389
cpu0->cpu0_L2C WRITE        ACCESS:    6737119 HIT:    6733925 MISS:       3194 MSHR_MERGE:          0
cpu0->cpu0_L2C TRANSLATION  ACCESS:      42932 HIT:      13075 MISS:      29857 MSHR_MERGE:          0
cpu0->cpu0_L2C PREFETCH REQUESTED:   89658082 ISSUED:   65224041 USEFUL:    1951554 USELESS:      46354
cpu0->cpu0_L2C AVERAGE MISS LATENCY: 118.6 cycles
cpu0->cpu0_L1I TOTAL        ACCESS:   50279122 HIT:   49325894 MISS:     953228 MSHR_MERGE:     441500
cpu0->cpu0_L1I LOAD         ACCESS:   50279122 HIT:   49325894 MISS:     953228 MSHR_MERGE:     441500
cpu0->cpu0_L1I RFO          ACCESS:          0 HIT:          0 MISS:          0 MSHR_MERGE:          0
cpu0->cpu0_L1I PREFETCH     ACCESS:          0 HIT:          0 MISS:          0 MSHR_MERGE:          0
cpu0->cpu0_L1I WRITE        ACCESS:          0 HIT:          0 MISS:          0 MSHR_MERGE:          0
cpu0->cpu0_L1I TRANSLATION  ACCESS:          0 HIT:          0 MISS:          0 MSHR_MERGE:          0
cpu0->cpu0_L1I PREFETCH REQUESTED:          0 ISSUED:          0 USEFUL:          0 USELESS:          0
cpu0->cpu0_L1I AVERAGE MISS LATENCY: 25.69 cycles
cpu0->cpu0_L1D TOTAL        ACCESS:  242933631 HIT:  206861616 MISS:   36072015 MSHR_MERGE:   21140421
cpu0->cpu0_L1D LOAD         ACCESS:  175305637 HIT:  156834977 MISS:   18470660 MSHR_MERGE:    8581917
cpu0->cpu0_L1D RFO          ACCESS:          0 HIT:          0 MISS:          0 MSHR_MERGE:          0
cpu0->cpu0_L1D PREFETCH     ACCESS:          0 HIT:          0 MISS:          0 MSHR_MERGE:          0
cpu0->cpu0_L1D WRITE        ACCESS:   67571672 HIT:   50013819 MISS:   17557853 MSHR_MERGE:   12557934
cpu0->cpu0_L1D TRANSLATION  ACCESS:      56322 HIT:      12820 MISS:      43502 MSHR_MERGE:        570
cpu0->cpu0_L1D PREFETCH REQUESTED:          0 ISSUED:          0 USEFUL:          0 USELESS:          0
cpu0->cpu0_L1D AVERAGE MISS LATENCY: 47.46 cycles
cpu0->cpu0_ITLB TOTAL        ACCESS:   41808770 HIT:   41754936 MISS:      53834 MSHR_MERGE:      32433
cpu0->cpu0_ITLB LOAD         ACCESS:   41808770 HIT:   41754936 MISS:      53834 MSHR_MERGE:      32433
cpu0->cpu0_ITLB RFO          ACCESS:          0 HIT:          0 MISS:          0 MSHR_MERGE:          0
cpu0->cpu0_ITLB PREFETCH     ACCESS:          0 HIT:          0 MISS:          0 MSHR_MERGE:          0
cpu0->cpu0_ITLB WRITE        ACCESS:          0 HIT:          0 MISS:          0 MSHR_MERGE:          0
cpu0->cpu0_ITLB TRANSLATION  ACCESS:          0 HIT:          0 MISS:          0 MSHR_MERGE:          0
cpu0->cpu0_ITLB PREFETCH REQUESTED:          0 ISSUED:          0 USEFUL:          0 USELESS:          0
cpu0->cpu0_ITLB AVERAGE MISS LATENCY: 12.95 cycles
cpu0->cpu0_DTLB TOTAL        ACCESS:  235229355 HIT:  234222491 MISS:    1006864 MSHR_MERGE:     535951
cpu0->cpu0_DTLB LOAD         ACCESS:  235229355 HIT:  234222491 MISS:    1006864 MSHR_MERGE:     535951
cpu0->cpu0_DTLB RFO          ACCESS:          0 HIT:          0 MISS:          0 MSHR_MERGE:          0
cpu0->cpu0_DTLB PREFETCH     ACCESS:          0 HIT:          0 MISS:          0 MSHR_MERGE:          0
cpu0->cpu0_DTLB WRITE        ACCESS:          0 HIT:          0 MISS:          0 MSHR_MERGE:          0
cpu0->cpu0_DTLB TRANSLATION  ACCESS:          0 HIT:          0 MISS:          0 MSHR_MERGE:          0
cpu0->cpu0_DTLB PREFETCH REQUESTED:          0 ISSUED:          0 USEFUL:          0 USELESS:          0
cpu0->cpu0_DTLB AVERAGE MISS LATENCY: 32.24 cycles
cpu0->LLC TOTAL        ACCESS:   39828803 HIT:   27792354 MISS:   12036449 MSHR_MERGE:    8325612
cpu0->LLC LOAD         ACCESS:    2481847 HIT:    2203471 MISS:     278376 MSHR_MERGE:     125205
cpu0->LLC RFO          ACCESS:    2056973 HIT:     777735 MISS:    1279238 MSHR_MERGE:         13
cpu0->LLC PREFETCH     ACCESS:   32295342 HIT:   21870246 MISS:   10425096 MSHR_MERGE:    8200394
cpu0->LLC WRITE        ACCESS:    2964784 HIT:    2932475 MISS:      32309 MSHR_MERGE:          0
cpu0->LLC TRANSLATION  ACCESS:      29857 HIT:       8427 MISS:      21430 MSHR_MERGE:          0
cpu0->LLC PREFETCH REQUESTED:          0 ISSUED:          0 USEFUL:          0 USELESS:          0
cpu0->LLC AVERAGE MISS LATENCY: 312.4 cycles

DRAM Statistics

Channel 0 RQ ROW_BUFFER_HIT:     244290
  ROW_BUFFER_MISS:    3433080
  AVG DBUS CONGESTED CYCLE: 6.802
Channel 0 WQ ROW_BUFFER_HIT:     262173
  ROW_BUFFER_MISS:    1522827
  FULL:        119
Channel 0 REFRESHES ISSUED:      40637
