[VMEM] WARNING: physical memory size is smaller than virtual memory size.
WARNING: option --warmup_instructions is deprecated. Use --warmup-instructions instead.
WARNING: option --simulation_instructions is deprecated. Use --simulation-instructions instead.

*** ChampSim Multicore Out-of-Order Simulator ***
Warmup Instructions: 200000000
Simulation Instructions: 1000000000
Number of CPUs: 1
Page size: 4096

Initialize SIGNATURE TABLE
ST_SET: 1
ST_WAY: 256
ST_TAG_BIT: 16

Initialize PATTERN TABLE
PT_SET: 512
PT_WAY: 4
SIG_DELTA_BIT: 7
C_SIG_BIT: 4
C_DELTA_BIT: 4

Initialize PREFETCH FILTER
FILTER_SET: 1024
Off-chip DRAM Size: 16 GiB Channels: 1 Width: 64-bit Data Rate: 3205 MT/s
Heartbeat CPU 0 instructions: 10000003 cycles: 2550559 heartbeat IPC: 3.921 cumulative IPC: 3.921 (Simulation time: 00 hr 00 min 53 sec)
Heartbeat CPU 0 instructions: 20000006 cycles: 5067661 heartbeat IPC: 3.973 cumulative IPC: 3.947 (Simulation time: 00 hr 01 min 45 sec)
Heartbeat CPU 0 instructions: 30000009 cycles: 7579837 heartbeat IPC: 3.981 cumulative IPC: 3.958 (Simulation time: 00 hr 02 min 36 sec)
Heartbeat CPU 0 instructions: 40000009 cycles: 10093973 heartbeat IPC: 3.978 cumulative IPC: 3.963 (Simulation time: 00 hr 03 min 28 sec)
Heartbeat CPU 0 instructions: 50000013 cycles: 12607140 heartbeat IPC: 3.979 cumulative IPC: 3.966 (Simulation time: 00 hr 04 min 21 sec)
Heartbeat CPU 0 instructions: 60000014 cycles: 15120310 heartbeat IPC: 3.979 cumulative IPC: 3.968 (Simulation time: 00 hr 05 min 13 sec)
Heartbeat CPU 0 instructions: 70000016 cycles: 17633855 heartbeat IPC: 3.978 cumulative IPC: 3.97 (Simulation time: 00 hr 06 min 02 sec)
Heartbeat CPU 0 instructions: 80000017 cycles: 20146608 heartbeat IPC: 3.98 cumulative IPC: 3.971 (Simulation time: 00 hr 06 min 53 sec)
Heartbeat CPU 0 instructions: 90000020 cycles: 22659509 heartbeat IPC: 3.979 cumulative IPC: 3.972 (Simulation time: 00 hr 07 min 41 sec)
Heartbeat CPU 0 instructions: 100000022 cycles: 25172394 heartbeat IPC: 3.979 cumulative IPC: 3.973 (Simulation time: 00 hr 08 min 30 sec)
Heartbeat CPU 0 instructions: 110000025 cycles: 27684470 heartbeat IPC: 3.981 cumulative IPC: 3.973 (Simulation time: 00 hr 09 min 18 sec)
Heartbeat CPU 0 instructions: 120000029 cycles: 30600827 heartbeat IPC: 3.429 cumulative IPC: 3.921 (Simulation time: 00 hr 10 min 11 sec)
Heartbeat CPU 0 instructions: 130000033 cycles: 33111879 heartbeat IPC: 3.982 cumulative IPC: 3.926 (Simulation time: 00 hr 10 min 59 sec)
Heartbeat CPU 0 instructions: 140000037 cycles: 35623666 heartbeat IPC: 3.981 cumulative IPC: 3.93 (Simulation time: 00 hr 11 min 49 sec)
Heartbeat CPU 0 instructions: 150000038 cycles: 38135382 heartbeat IPC: 3.981 cumulative IPC: 3.933 (Simulation time: 00 hr 12 min 37 sec)
Heartbeat CPU 0 instructions: 160000039 cycles: 40647402 heartbeat IPC: 3.981 cumulative IPC: 3.936 (Simulation time: 00 hr 13 min 26 sec)
Heartbeat CPU 0 instructions: 170000041 cycles: 43158940 heartbeat IPC: 3.982 cumulative IPC: 3.939 (Simulation time: 00 hr 14 min 15 sec)
Heartbeat CPU 0 instructions: 180000044 cycles: 45672225 heartbeat IPC: 3.979 cumulative IPC: 3.941 (Simulation time: 00 hr 15 min 04 sec)
Heartbeat CPU 0 instructions: 190000046 cycles: 48183409 heartbeat IPC: 3.982 cumulative IPC: 3.943 (Simulation time: 00 hr 15 min 52 sec)
Warmup finished CPU 0 instructions: 200000000 cycles: 50695720 cumulative IPC: 3.945 (Simulation time: 00 hr 16 min 41 sec)
Warmup complete CPU 0 instructions: 200000000 cycles: 50695720 cumulative IPC: 3.945 (Simulation time: 00 hr 16 min 41 sec)
Heartbeat CPU 0 instructions: 200000046 cycles: 50695730 heartbeat IPC: 3.98 cumulative IPC: 4.6 (Simulation time: 00 hr 16 min 41 sec)
Heartbeat CPU 0 instructions: 210000047 cycles: 57341421 heartbeat IPC: 1.505 cumulative IPC: 1.505 (Simulation time: 00 hr 17 min 50 sec)
Heartbeat CPU 0 instructions: 220000050 cycles: 64015704 heartbeat IPC: 1.498 cumulative IPC: 1.502 (Simulation time: 00 hr 18 min 59 sec)
Heartbeat CPU 0 instructions: 230000053 cycles: 70652962 heartbeat IPC: 1.507 cumulative IPC: 1.503 (Simulation time: 00 hr 20 min 07 sec)
Heartbeat CPU 0 instructions: 240000057 cycles: 77305401 heartbeat IPC: 1.503 cumulative IPC: 1.503 (Simulation time: 00 hr 21 min 14 sec)
Heartbeat CPU 0 instructions: 250000060 cycles: 83973886 heartbeat IPC: 1.5 cumulative IPC: 1.502 (Simulation time: 00 hr 22 min 22 sec)
Heartbeat CPU 0 instructions: 260000062 cycles: 90609010 heartbeat IPC: 1.507 cumulative IPC: 1.503 (Simulation time: 00 hr 23 min 30 sec)
Heartbeat CPU 0 instructions: 270000064 cycles: 97275492 heartbeat IPC: 1.5 cumulative IPC: 1.503 (Simulation time: 00 hr 24 min 37 sec)
Heartbeat CPU 0 instructions: 280000066 cycles: 103887065 heartbeat IPC: 1.512 cumulative IPC: 1.504 (Simulation time: 00 hr 25 min 45 sec)
Heartbeat CPU 0 instructions: 290000066 cycles: 110539946 heartbeat IPC: 1.503 cumulative IPC: 1.504 (Simulation time: 00 hr 26 min 52 sec)
Heartbeat CPU 0 instructions: 300000067 cycles: 117216557 heartbeat IPC: 1.498 cumulative IPC: 1.503 (Simulation time: 00 hr 28 min 00 sec)
Heartbeat CPU 0 instructions: 310000067 cycles: 123907134 heartbeat IPC: 1.495 cumulative IPC: 1.502 (Simulation time: 00 hr 29 min 12 sec)
Heartbeat CPU 0 instructions: 320000070 cycles: 130573654 heartbeat IPC: 1.5 cumulative IPC: 1.502 (Simulation time: 00 hr 30 min 25 sec)
Heartbeat CPU 0 instructions: 330000074 cycles: 137251698 heartbeat IPC: 1.497 cumulative IPC: 1.502 (Simulation time: 00 hr 31 min 39 sec)
Heartbeat CPU 0 instructions: 340000074 cycles: 143911166 heartbeat IPC: 1.502 cumulative IPC: 1.502 (Simulation time: 00 hr 32 min 52 sec)
Heartbeat CPU 0 instructions: 350000074 cycles: 150604382 heartbeat IPC: 1.494 cumulative IPC: 1.501 (Simulation time: 00 hr 34 min 06 sec)
Heartbeat CPU 0 instructions: 360000076 cycles: 157316979 heartbeat IPC: 1.49 cumulative IPC: 1.501 (Simulation time: 00 hr 35 min 18 sec)
Heartbeat CPU 0 instructions: 370000080 cycles: 163934595 heartbeat IPC: 1.511 cumulative IPC: 1.501 (Simulation time: 00 hr 36 min 27 sec)
Heartbeat CPU 0 instructions: 380000084 cycles: 170638034 heartbeat IPC: 1.492 cumulative IPC: 1.501 (Simulation time: 00 hr 37 min 36 sec)
Heartbeat CPU 0 instructions: 390000084 cycles: 177290730 heartbeat IPC: 1.503 cumulative IPC: 1.501 (Simulation time: 00 hr 38 min 44 sec)
Heartbeat CPU 0 instructions: 400000087 cycles: 183948366 heartbeat IPC: 1.502 cumulative IPC: 1.501 (Simulation time: 00 hr 39 min 52 sec)
Heartbeat CPU 0 instructions: 410000087 cycles: 190640845 heartbeat IPC: 1.494 cumulative IPC: 1.501 (Simulation time: 00 hr 41 min 00 sec)
Heartbeat CPU 0 instructions: 420000090 cycles: 197368093 heartbeat IPC: 1.486 cumulative IPC: 1.5 (Simulation time: 00 hr 42 min 08 sec)
Heartbeat CPU 0 instructions: 430000093 cycles: 204104524 heartbeat IPC: 1.484 cumulative IPC: 1.499 (Simulation time: 00 hr 43 min 17 sec)
Heartbeat CPU 0 instructions: 440000096 cycles: 210797876 heartbeat IPC: 1.494 cumulative IPC: 1.499 (Simulation time: 00 hr 44 min 29 sec)
Heartbeat CPU 0 instructions: 450000097 cycles: 217474357 heartbeat IPC: 1.498 cumulative IPC: 1.499 (Simulation time: 00 hr 45 min 43 sec)
Heartbeat CPU 0 instructions: 460000097 cycles: 224168000 heartbeat IPC: 1.494 cumulative IPC: 1.499 (Simulation time: 00 hr 46 min 57 sec)
Heartbeat CPU 0 instructions: 470000098 cycles: 230910280 heartbeat IPC: 1.483 cumulative IPC: 1.498 (Simulation time: 00 hr 48 min 05 sec)
Heartbeat CPU 0 instructions: 480000100 cycles: 237592459 heartbeat IPC: 1.497 cumulative IPC: 1.498 (Simulation time: 00 hr 49 min 14 sec)
Heartbeat CPU 0 instructions: 490000100 cycles: 244300725 heartbeat IPC: 1.491 cumulative IPC: 1.498 (Simulation time: 00 hr 50 min 23 sec)
Heartbeat CPU 0 instructions: 500000103 cycles: 250954511 heartbeat IPC: 1.503 cumulative IPC: 1.498 (Simulation time: 00 hr 51 min 31 sec)
Heartbeat CPU 0 instructions: 510000105 cycles: 257655655 heartbeat IPC: 1.492 cumulative IPC: 1.498 (Simulation time: 00 hr 52 min 39 sec)
Heartbeat CPU 0 instructions: 520000105 cycles: 264315707 heartbeat IPC: 1.501 cumulative IPC: 1.498 (Simulation time: 00 hr 53 min 50 sec)
Heartbeat CPU 0 instructions: 530000108 cycles: 271018300 heartbeat IPC: 1.492 cumulative IPC: 1.498 (Simulation time: 00 hr 54 min 59 sec)
Heartbeat CPU 0 instructions: 540000110 cycles: 277711382 heartbeat IPC: 1.494 cumulative IPC: 1.498 (Simulation time: 00 hr 56 min 07 sec)
Heartbeat CPU 0 instructions: 550000112 cycles: 284389528 heartbeat IPC: 1.497 cumulative IPC: 1.498 (Simulation time: 00 hr 57 min 15 sec)
Heartbeat CPU 0 instructions: 560000115 cycles: 291104556 heartbeat IPC: 1.489 cumulative IPC: 1.497 (Simulation time: 00 hr 58 min 25 sec)
Heartbeat CPU 0 instructions: 570000119 cycles: 297764633 heartbeat IPC: 1.501 cumulative IPC: 1.498 (Simulation time: 00 hr 59 min 37 sec)
Heartbeat CPU 0 instructions: 580000121 cycles: 304421160 heartbeat IPC: 1.502 cumulative IPC: 1.498 (Simulation time: 01 hr 00 min 49 sec)
Heartbeat CPU 0 instructions: 590000122 cycles: 311071636 heartbeat IPC: 1.504 cumulative IPC: 1.498 (Simulation time: 01 hr 02 min 00 sec)
Heartbeat CPU 0 instructions: 600000125 cycles: 317707357 heartbeat IPC: 1.507 cumulative IPC: 1.498 (Simulation time: 01 hr 03 min 12 sec)
Heartbeat CPU 0 instructions: 610000126 cycles: 324403983 heartbeat IPC: 1.493 cumulative IPC: 1.498 (Simulation time: 01 hr 04 min 24 sec)
Heartbeat CPU 0 instructions: 620000127 cycles: 331102440 heartbeat IPC: 1.493 cumulative IPC: 1.498 (Simulation time: 01 hr 05 min 32 sec)
Heartbeat CPU 0 instructions: 630000131 cycles: 337816801 heartbeat IPC: 1.489 cumulative IPC: 1.498 (Simulation time: 01 hr 06 min 41 sec)
Heartbeat CPU 0 instructions: 640000131 cycles: 344556356 heartbeat IPC: 1.484 cumulative IPC: 1.497 (Simulation time: 01 hr 07 min 49 sec)
Heartbeat CPU 0 instructions: 650000135 cycles: 351256344 heartbeat IPC: 1.493 cumulative IPC: 1.497 (Simulation time: 01 hr 08 min 57 sec)
Heartbeat CPU 0 instructions: 660000136 cycles: 357907000 heartbeat IPC: 1.504 cumulative IPC: 1.497 (Simulation time: 01 hr 10 min 05 sec)
Heartbeat CPU 0 instructions: 670000136 cycles: 364576329 heartbeat IPC: 1.499 cumulative IPC: 1.497 (Simulation time: 01 hr 11 min 17 sec)
Heartbeat CPU 0 instructions: 680000138 cycles: 371268829 heartbeat IPC: 1.494 cumulative IPC: 1.497 (Simulation time: 01 hr 12 min 30 sec)
Heartbeat CPU 0 instructions: 690000140 cycles: 377947593 heartbeat IPC: 1.497 cumulative IPC: 1.497 (Simulation time: 01 hr 13 min 42 sec)
Heartbeat CPU 0 instructions: 700000144 cycles: 384657912 heartbeat IPC: 1.49 cumulative IPC: 1.497 (Simulation time: 01 hr 14 min 54 sec)
Heartbeat CPU 0 instructions: 710000145 cycles: 391320385 heartbeat IPC: 1.501 cumulative IPC: 1.497 (Simulation time: 01 hr 16 min 05 sec)
Heartbeat CPU 0 instructions: 720000145 cycles: 398011501 heartbeat IPC: 1.495 cumulative IPC: 1.497 (Simulation time: 01 hr 17 min 17 sec)
Heartbeat CPU 0 instructions: 730000149 cycles: 404713026 heartbeat IPC: 1.492 cumulative IPC: 1.497 (Simulation time: 01 hr 18 min 29 sec)
Heartbeat CPU 0 instructions: 740000149 cycles: 411396364 heartbeat IPC: 1.496 cumulative IPC: 1.497 (Simulation time: 01 hr 19 min 41 sec)
Heartbeat CPU 0 instructions: 750000151 cycles: 418090622 heartbeat IPC: 1.494 cumulative IPC: 1.497 (Simulation time: 01 hr 20 min 53 sec)
Heartbeat CPU 0 instructions: 760000155 cycles: 424768099 heartbeat IPC: 1.498 cumulative IPC: 1.497 (Simulation time: 01 hr 22 min 05 sec)
Heartbeat CPU 0 instructions: 770000155 cycles: 431432644 heartbeat IPC: 1.5 cumulative IPC: 1.497 (Simulation time: 01 hr 23 min 18 sec)
Heartbeat CPU 0 instructions: 780000158 cycles: 438133150 heartbeat IPC: 1.492 cumulative IPC: 1.497 (Simulation time: 01 hr 24 min 30 sec)
Heartbeat CPU 0 instructions: 790000158 cycles: 444790280 heartbeat IPC: 1.502 cumulative IPC: 1.497 (Simulation time: 01 hr 25 min 42 sec)
Heartbeat CPU 0 instructions: 800000161 cycles: 451491896 heartbeat IPC: 1.492 cumulative IPC: 1.497 (Simulation time: 01 hr 26 min 54 sec)
Heartbeat CPU 0 instructions: 810000164 cycles: 458158582 heartbeat IPC: 1.5 cumulative IPC: 1.497 (Simulation time: 01 hr 28 min 06 sec)
Heartbeat CPU 0 instructions: 820000166 cycles: 464860973 heartbeat IPC: 1.492 cumulative IPC: 1.497 (Simulation time: 01 hr 29 min 19 sec)
Heartbeat CPU 0 instructions: 830000166 cycles: 471522747 heartbeat IPC: 1.501 cumulative IPC: 1.497 (Simulation time: 01 hr 30 min 31 sec)
Heartbeat CPU 0 instructions: 840000170 cycles: 478196676 heartbeat IPC: 1.498 cumulative IPC: 1.497 (Simulation time: 01 hr 31 min 43 sec)
Heartbeat CPU 0 instructions: 850000170 cycles: 484892726 heartbeat IPC: 1.493 cumulative IPC: 1.497 (Simulation time: 01 hr 32 min 55 sec)
Heartbeat CPU 0 instructions: 860000170 cycles: 491552636 heartbeat IPC: 1.502 cumulative IPC: 1.497 (Simulation time: 01 hr 34 min 07 sec)
Heartbeat CPU 0 instructions: 870000174 cycles: 498235223 heartbeat IPC: 1.496 cumulative IPC: 1.497 (Simulation time: 01 hr 35 min 19 sec)
Heartbeat CPU 0 instructions: 880000176 cycles: 504927787 heartbeat IPC: 1.494 cumulative IPC: 1.497 (Simulation time: 01 hr 36 min 32 sec)
Heartbeat CPU 0 instructions: 890000180 cycles: 511566490 heartbeat IPC: 1.506 cumulative IPC: 1.497 (Simulation time: 01 hr 37 min 44 sec)
Heartbeat CPU 0 instructions: 900000180 cycles: 518221474 heartbeat IPC: 1.503 cumulative IPC: 1.497 (Simulation time: 01 hr 38 min 56 sec)
Heartbeat CPU 0 instructions: 910000180 cycles: 524823503 heartbeat IPC: 1.515 cumulative IPC: 1.497 (Simulation time: 01 hr 40 min 07 sec)
Heartbeat CPU 0 instructions: 920000184 cycles: 531476280 heartbeat IPC: 1.503 cumulative IPC: 1.498 (Simulation time: 01 hr 41 min 19 sec)
Heartbeat CPU 0 instructions: 930000186 cycles: 538187783 heartbeat IPC: 1.49 cumulative IPC: 1.497 (Simulation time: 01 hr 42 min 32 sec)
Heartbeat CPU 0 instructions: 940000186 cycles: 544810965 heartbeat IPC: 1.51 cumulative IPC: 1.498 (Simulation time: 01 hr 43 min 43 sec)
Heartbeat CPU 0 instructions: 950000189 cycles: 551553070 heartbeat IPC: 1.483 cumulative IPC: 1.497 (Simulation time: 01 hr 44 min 56 sec)
Heartbeat CPU 0 instructions: 960000189 cycles: 561047186 heartbeat IPC: 1.053 cumulative IPC: 1.489 (Simulation time: 01 hr 46 min 40 sec)
Heartbeat CPU 0 instructions: 970000192 cycles: 567902426 heartbeat IPC: 1.459 cumulative IPC: 1.489 (Simulation time: 01 hr 47 min 53 sec)
Heartbeat CPU 0 instructions: 980000192 cycles: 574686487 heartbeat IPC: 1.474 cumulative IPC: 1.489 (Simulation time: 01 hr 49 min 06 sec)
Heartbeat CPU 0 instructions: 990000192 cycles: 581512910 heartbeat IPC: 1.465 cumulative IPC: 1.488 (Simulation time: 01 hr 50 min 19 sec)
Heartbeat CPU 0 instructions: 1000000194 cycles: 588365052 heartbeat IPC: 1.459 cumulative IPC: 1.488 (Simulation time: 01 hr 51 min 32 sec)
Heartbeat CPU 0 instructions: 1010000194 cycles: 595199172 heartbeat IPC: 1.463 cumulative IPC: 1.488 (Simulation time: 01 hr 52 min 45 sec)
Heartbeat CPU 0 instructions: 1020000194 cycles: 601965334 heartbeat IPC: 1.478 cumulative IPC: 1.487 (Simulation time: 01 hr 53 min 57 sec)
Heartbeat CPU 0 instructions: 1030000195 cycles: 608747481 heartbeat IPC: 1.474 cumulative IPC: 1.487 (Simulation time: 01 hr 55 min 11 sec)
Heartbeat CPU 0 instructions: 1040000198 cycles: 615505360 heartbeat IPC: 1.48 cumulative IPC: 1.487 (Simulation time: 01 hr 56 min 23 sec)
Heartbeat CPU 0 instructions: 1050000201 cycles: 622300751 heartbeat IPC: 1.472 cumulative IPC: 1.487 (Simulation time: 01 hr 57 min 36 sec)
Heartbeat CPU 0 instructions: 1060000202 cycles: 629091045 heartbeat IPC: 1.473 cumulative IPC: 1.487 (Simulation time: 01 hr 58 min 49 sec)
Heartbeat CPU 0 instructions: 1070000202 cycles: 635852658 heartbeat IPC: 1.479 cumulative IPC: 1.487 (Simulation time: 02 hr 00 min 01 sec)
Heartbeat CPU 0 instructions: 1080000202 cycles: 642655893 heartbeat IPC: 1.47 cumulative IPC: 1.487 (Simulation time: 02 hr 01 min 14 sec)
Heartbeat CPU 0 instructions: 1090000204 cycles: 649435097 heartbeat IPC: 1.475 cumulative IPC: 1.486 (Simulation time: 02 hr 02 min 28 sec)
Heartbeat CPU 0 instructions: 1100000204 cycles: 656228259 heartbeat IPC: 1.472 cumulative IPC: 1.486 (Simulation time: 02 hr 03 min 40 sec)
Heartbeat CPU 0 instructions: 1110000204 cycles: 663041246 heartbeat IPC: 1.468 cumulative IPC: 1.486 (Simulation time: 02 hr 04 min 54 sec)
Heartbeat CPU 0 instructions: 1120000206 cycles: 669810528 heartbeat IPC: 1.477 cumulative IPC: 1.486 (Simulation time: 02 hr 06 min 06 sec)
Heartbeat CPU 0 instructions: 1130000206 cycles: 676595153 heartbeat IPC: 1.474 cumulative IPC: 1.486 (Simulation time: 02 hr 07 min 19 sec)
Heartbeat CPU 0 instructions: 1140000208 cycles: 683373791 heartbeat IPC: 1.475 cumulative IPC: 1.486 (Simulation time: 02 hr 08 min 32 sec)
Heartbeat CPU 0 instructions: 1150000208 cycles: 690127054 heartbeat IPC: 1.481 cumulative IPC: 1.486 (Simulation time: 02 hr 09 min 45 sec)
Heartbeat CPU 0 instructions: 1160000209 cycles: 696942389 heartbeat IPC: 1.467 cumulative IPC: 1.486 (Simulation time: 02 hr 10 min 58 sec)
Heartbeat CPU 0 instructions: 1170000211 cycles: 703686139 heartbeat IPC: 1.483 cumulative IPC: 1.485 (Simulation time: 02 hr 12 min 11 sec)
Heartbeat CPU 0 instructions: 1180000213 cycles: 710490546 heartbeat IPC: 1.47 cumulative IPC: 1.485 (Simulation time: 02 hr 13 min 24 sec)
Heartbeat CPU 0 instructions: 1190000213 cycles: 717308520 heartbeat IPC: 1.467 cumulative IPC: 1.485 (Simulation time: 02 hr 14 min 37 sec)
Simulation finished CPU 0 instructions: 1000000003 cycles: 673406646 cumulative IPC: 1.485 (Simulation time: 02 hr 15 min 50 sec)
Simulation complete CPU 0 instructions: 1000000003 cycles: 673406646 cumulative IPC: 1.485 (Simulation time: 02 hr 15 min 50 sec)

ChampSim completed all CPUs

=== Simulation ===
CPU 0 runs /home/grads/b/bhavishya_k_s/ecen676/ChampSim/dpc3_traces/641.leela_s-800B.champsimtrace.xz

Region of Interest Statistics

CPU 0 cumulative IPC: 1.485 instructions: 1000000003 cycles: 673406646
CPU 0 Branch Prediction Accuracy: 88.23% MPKI: 19.25 Average ROB Occupancy at Mispredict: 23.42
Branch type MPKI
BRANCH_DIRECT_JUMP: 0.07426
BRANCH_INDIRECT: 0.000567
BRANCH_CONDITIONAL: 19.14
BRANCH_DIRECT_CALL: 3e-06
BRANCH_INDIRECT_CALL: 8e-06
BRANCH_RETURN: 0.02639

cpu0->cpu0_STLB TOTAL        ACCESS:     402095 HIT:     401239 MISS:        856 MSHR_MERGE:          0
cpu0->cpu0_STLB LOAD         ACCESS:     402095 HIT:     401239 MISS:        856 MSHR_MERGE:          0
cpu0->cpu0_STLB RFO          ACCESS:          0 HIT:          0 MISS:          0 MSHR_MERGE:          0
cpu0->cpu0_STLB PREFETCH     ACCESS:          0 HIT:          0 MISS:          0 MSHR_MERGE:          0
cpu0->cpu0_STLB WRITE        ACCESS:          0 HIT:          0 MISS:          0 MSHR_MERGE:          0
cpu0->cpu0_STLB TRANSLATION  ACCESS:          0 HIT:          0 MISS:          0 MSHR_MERGE:          0
cpu0->cpu0_STLB PREFETCH REQUESTED:          0 ISSUED:          0 USEFUL:          0 USELESS:          0
cpu0->cpu0_STLB AVERAGE MISS LATENCY: 157.2 cycles
cpu0->cpu0_L2C TOTAL        ACCESS:    4587621 HIT:    4105375 MISS:     482246 MSHR_MERGE:      16514
cpu0->cpu0_L2C LOAD         ACCESS:    2049848 HIT:    2016617 MISS:      33231 MSHR_MERGE:       2681
cpu0->cpu0_L2C RFO          ACCESS:     248053 HIT:     211853 MISS:      36200 MSHR_MERGE:          1
cpu0->cpu0_L2C PREFETCH     ACCESS:    1845714 HIT:    1433194 MISS:     412520 MSHR_MERGE:      13832
cpu0->cpu0_L2C WRITE        ACCESS:     443432 HIT:     443419 MISS:         13 MSHR_MERGE:          0
cpu0->cpu0_L2C TRANSLATION  ACCESS:        574 HIT:        292 MISS:        282 MSHR_MERGE:          0
cpu0->cpu0_L2C PREFETCH REQUESTED:    1851252 ISSUED:    1845714 USEFUL:      19843 USELESS:        130
cpu0->cpu0_L2C AVERAGE MISS LATENCY: 187.2 cycles
cpu0->cpu0_L1I TOTAL        ACCESS:  100136049 HIT:  100047691 MISS:      88358 MSHR_MERGE:      31928
cpu0->cpu0_L1I LOAD         ACCESS:  100136049 HIT:  100047691 MISS:      88358 MSHR_MERGE:      31928
cpu0->cpu0_L1I RFO          ACCESS:          0 HIT:          0 MISS:          0 MSHR_MERGE:          0
cpu0->cpu0_L1I PREFETCH     ACCESS:          0 HIT:          0 MISS:          0 MSHR_MERGE:          0
cpu0->cpu0_L1I WRITE        ACCESS:          0 HIT:          0 MISS:          0 MSHR_MERGE:          0
cpu0->cpu0_L1I TRANSLATION  ACCESS:          0 HIT:          0 MISS:          0 MSHR_MERGE:          0
cpu0->cpu0_L1I PREFETCH REQUESTED:          0 ISSUED:          0 USEFUL:          0 USELESS:          0
cpu0->cpu0_L1I AVERAGE MISS LATENCY: 9.711 cycles
cpu0->cpu0_L1D TOTAL        ACCESS:  296445217 HIT:  293234560 MISS:    3210657 MSHR_MERGE:     968610
cpu0->cpu0_L1D LOAD         ACCESS:  182520795 HIT:  180074461 MISS:    2446334 MSHR_MERGE:     452916
cpu0->cpu0_L1D RFO          ACCESS:          0 HIT:          0 MISS:          0 MSHR_MERGE:          0
cpu0->cpu0_L1D PREFETCH     ACCESS:          0 HIT:          0 MISS:          0 MSHR_MERGE:          0
cpu0->cpu0_L1D WRITE        ACCESS:  113923566 HIT:  113159817 MISS:     763749 MSHR_MERGE:     515694
cpu0->cpu0_L1D TRANSLATION  ACCESS:        856 HIT:        282 MISS:        574 MSHR_MERGE:          0
cpu0->cpu0_L1D PREFETCH REQUESTED:          0 ISSUED:          0 USEFUL:          0 USELESS:          0
cpu0->cpu0_L1D AVERAGE MISS LATENCY: 13.8 cycles
cpu0->cpu0_ITLB TOTAL        ACCESS:   88072247 HIT:   88072183 MISS:         64 MSHR_MERGE:         33
cpu0->cpu0_ITLB LOAD         ACCESS:   88072247 HIT:   88072183 MISS:         64 MSHR_MERGE:         33
cpu0->cpu0_ITLB RFO          ACCESS:          0 HIT:          0 MISS:          0 MSHR_MERGE:          0
cpu0->cpu0_ITLB PREFETCH     ACCESS:          0 HIT:          0 MISS:          0 MSHR_MERGE:          0
cpu0->cpu0_ITLB WRITE        ACCESS:          0 HIT:          0 MISS:          0 MSHR_MERGE:          0
cpu0->cpu0_ITLB TRANSLATION  ACCESS:          0 HIT:          0 MISS:          0 MSHR_MERGE:          0
cpu0->cpu0_ITLB PREFETCH REQUESTED:          0 ISSUED:          0 USEFUL:          0 USELESS:          0
cpu0->cpu0_ITLB AVERAGE MISS LATENCY: 160.9 cycles
cpu0->cpu0_DTLB TOTAL        ACCESS:  278585049 HIT:  278122497 MISS:     462552 MSHR_MERGE:      60488
cpu0->cpu0_DTLB LOAD         ACCESS:  278585049 HIT:  278122497 MISS:     462552 MSHR_MERGE:      60488
cpu0->cpu0_DTLB RFO          ACCESS:          0 HIT:          0 MISS:          0 MSHR_MERGE:          0
cpu0->cpu0_DTLB PREFETCH     ACCESS:          0 HIT:          0 MISS:          0 MSHR_MERGE:          0
cpu0->cpu0_DTLB WRITE        ACCESS:          0 HIT:          0 MISS:          0 MSHR_MERGE:          0
cpu0->cpu0_DTLB TRANSLATION  ACCESS:          0 HIT:          0 MISS:          0 MSHR_MERGE:          0
cpu0->cpu0_DTLB PREFETCH REQUESTED:          0 ISSUED:          0 USEFUL:          0 USELESS:          0
cpu0->cpu0_DTLB AVERAGE MISS LATENCY: 5.326 cycles
cpu0->LLC TOTAL        ACCESS:     504454 HIT:     329668 MISS:     174786 MSHR_MERGE:     104852
cpu0->LLC LOAD         ACCESS:      30550 HIT:      21498 MISS:       9052 MSHR_MERGE:       1966
cpu0->LLC RFO          ACCESS:      36199 HIT:       4796 MISS:      31403 MSHR_MERGE:          7
cpu0->LLC PREFETCH     ACCESS:     397654 HIT:     263629 MISS:     134025 MSHR_MERGE:     102879
cpu0->LLC WRITE        ACCESS:      39769 HIT:      39715 MISS:         54 MSHR_MERGE:          0
cpu0->LLC TRANSLATION  ACCESS:        282 HIT:         30 MISS:        252 MSHR_MERGE:          0
cpu0->LLC PREFETCH REQUESTED:          0 ISSUED:          0 USEFUL:          0 USELESS:          0
cpu0->LLC AVERAGE MISS LATENCY: 284.4 cycles

DRAM Statistics

Channel 0 RQ ROW_BUFFER_HIT:       2372
  ROW_BUFFER_MISS:      67359
  AVG DBUS CONGESTED CYCLE: 6.941
Channel 0 WQ ROW_BUFFER_HIT:       5170
  ROW_BUFFER_MISS:      31359
  FULL:          0
Channel 0 REFRESHES ISSUED:      56117
