[VMEM] WARNING: physical memory size is smaller than virtual memory size.
WARNING: option --warmup_instructions is deprecated. Use --warmup-instructions instead.
WARNING: option --simulation_instructions is deprecated. Use --simulation-instructions instead.

*** ChampSim Multicore Out-of-Order Simulator ***
Warmup Instructions: 200000000
Simulation Instructions: 1000000000
Number of CPUs: 1
Page size: 4096

Initialize SIGNATURE TABLE
ST_SET: 1
ST_WAY: 256
ST_TAG_BIT: 16

Initialize PATTERN TABLE
PT_SET: 512
PT_WAY: 4
SIG_DELTA_BIT: 7
C_SIG_BIT: 4
C_DELTA_BIT: 4

Initialize PREFETCH FILTER
FILTER_SET: 1024
Off-chip DRAM Size: 16 GiB Channels: 1 Width: 64-bit Data Rate: 3205 MT/s
Heartbeat CPU 0 instructions: 10000001 cycles: 3126742 heartbeat IPC: 3.198 cumulative IPC: 3.198 (Simulation time: 00 hr 01 min 01 sec)
Heartbeat CPU 0 instructions: 20000001 cycles: 6254187 heartbeat IPC: 3.197 cumulative IPC: 3.198 (Simulation time: 00 hr 02 min 03 sec)
Heartbeat CPU 0 instructions: 30000003 cycles: 9362000 heartbeat IPC: 3.218 cumulative IPC: 3.204 (Simulation time: 00 hr 03 min 05 sec)
Heartbeat CPU 0 instructions: 40000004 cycles: 12485522 heartbeat IPC: 3.202 cumulative IPC: 3.204 (Simulation time: 00 hr 04 min 07 sec)
Heartbeat CPU 0 instructions: 50000004 cycles: 15604809 heartbeat IPC: 3.206 cumulative IPC: 3.204 (Simulation time: 00 hr 05 min 08 sec)
Heartbeat CPU 0 instructions: 60000005 cycles: 18741035 heartbeat IPC: 3.189 cumulative IPC: 3.202 (Simulation time: 00 hr 06 min 11 sec)
Heartbeat CPU 0 instructions: 70000007 cycles: 21816926 heartbeat IPC: 3.251 cumulative IPC: 3.209 (Simulation time: 00 hr 07 min 11 sec)
Heartbeat CPU 0 instructions: 80000008 cycles: 24948747 heartbeat IPC: 3.193 cumulative IPC: 3.207 (Simulation time: 00 hr 08 min 14 sec)
Heartbeat CPU 0 instructions: 90000008 cycles: 28038700 heartbeat IPC: 3.236 cumulative IPC: 3.21 (Simulation time: 00 hr 09 min 16 sec)
Heartbeat CPU 0 instructions: 100000011 cycles: 31077229 heartbeat IPC: 3.291 cumulative IPC: 3.218 (Simulation time: 00 hr 10 min 18 sec)
Heartbeat CPU 0 instructions: 110000012 cycles: 34112790 heartbeat IPC: 3.294 cumulative IPC: 3.225 (Simulation time: 00 hr 11 min 19 sec)
Heartbeat CPU 0 instructions: 120000016 cycles: 37110330 heartbeat IPC: 3.336 cumulative IPC: 3.234 (Simulation time: 00 hr 12 min 20 sec)
Heartbeat CPU 0 instructions: 130000017 cycles: 40230104 heartbeat IPC: 3.205 cumulative IPC: 3.231 (Simulation time: 00 hr 13 min 22 sec)
Heartbeat CPU 0 instructions: 140000020 cycles: 43293719 heartbeat IPC: 3.264 cumulative IPC: 3.234 (Simulation time: 00 hr 14 min 24 sec)
Heartbeat CPU 0 instructions: 150000020 cycles: 46267638 heartbeat IPC: 3.363 cumulative IPC: 3.242 (Simulation time: 00 hr 15 min 26 sec)
Heartbeat CPU 0 instructions: 160000020 cycles: 49347460 heartbeat IPC: 3.247 cumulative IPC: 3.242 (Simulation time: 00 hr 16 min 27 sec)
Heartbeat CPU 0 instructions: 170000022 cycles: 52405775 heartbeat IPC: 3.27 cumulative IPC: 3.244 (Simulation time: 00 hr 17 min 30 sec)
Heartbeat CPU 0 instructions: 180000024 cycles: 55489780 heartbeat IPC: 3.243 cumulative IPC: 3.244 (Simulation time: 00 hr 18 min 32 sec)
Heartbeat CPU 0 instructions: 190000028 cycles: 58635577 heartbeat IPC: 3.179 cumulative IPC: 3.24 (Simulation time: 00 hr 19 min 35 sec)
Warmup finished CPU 0 instructions: 200000003 cycles: 61774881 cumulative IPC: 3.238 (Simulation time: 00 hr 20 min 40 sec)
Warmup complete CPU 0 instructions: 200000003 cycles: 61774881 cumulative IPC: 3.238 (Simulation time: 00 hr 20 min 40 sec)
Heartbeat CPU 0 instructions: 200000031 cycles: 61774888 heartbeat IPC: 3.185 cumulative IPC: 4 (Simulation time: 00 hr 20 min 40 sec)
Heartbeat CPU 0 instructions: 210000031 cycles: 68494841 heartbeat IPC: 1.488 cumulative IPC: 1.488 (Simulation time: 00 hr 22 min 04 sec)
Heartbeat CPU 0 instructions: 220000031 cycles: 75496986 heartbeat IPC: 1.428 cumulative IPC: 1.458 (Simulation time: 00 hr 23 min 27 sec)
Heartbeat CPU 0 instructions: 230000035 cycles: 82648324 heartbeat IPC: 1.398 cumulative IPC: 1.437 (Simulation time: 00 hr 24 min 52 sec)
Heartbeat CPU 0 instructions: 240000037 cycles: 89229290 heartbeat IPC: 1.52 cumulative IPC: 1.457 (Simulation time: 00 hr 26 min 15 sec)
Heartbeat CPU 0 instructions: 250000041 cycles: 95929778 heartbeat IPC: 1.492 cumulative IPC: 1.464 (Simulation time: 00 hr 27 min 38 sec)
Heartbeat CPU 0 instructions: 260000042 cycles: 102818503 heartbeat IPC: 1.452 cumulative IPC: 1.462 (Simulation time: 00 hr 29 min 02 sec)
Heartbeat CPU 0 instructions: 270000046 cycles: 109613174 heartbeat IPC: 1.472 cumulative IPC: 1.463 (Simulation time: 00 hr 30 min 25 sec)
Heartbeat CPU 0 instructions: 280000047 cycles: 116430103 heartbeat IPC: 1.467 cumulative IPC: 1.464 (Simulation time: 00 hr 31 min 48 sec)
Heartbeat CPU 0 instructions: 290000050 cycles: 123225974 heartbeat IPC: 1.471 cumulative IPC: 1.465 (Simulation time: 00 hr 33 min 12 sec)
Heartbeat CPU 0 instructions: 300000050 cycles: 129871247 heartbeat IPC: 1.505 cumulative IPC: 1.469 (Simulation time: 00 hr 34 min 34 sec)
Heartbeat CPU 0 instructions: 310000053 cycles: 136838713 heartbeat IPC: 1.435 cumulative IPC: 1.465 (Simulation time: 00 hr 35 min 59 sec)
Heartbeat CPU 0 instructions: 320000057 cycles: 143615600 heartbeat IPC: 1.476 cumulative IPC: 1.466 (Simulation time: 00 hr 37 min 21 sec)
Heartbeat CPU 0 instructions: 330000061 cycles: 150541688 heartbeat IPC: 1.444 cumulative IPC: 1.465 (Simulation time: 00 hr 38 min 48 sec)
Heartbeat CPU 0 instructions: 340000061 cycles: 157265324 heartbeat IPC: 1.487 cumulative IPC: 1.466 (Simulation time: 00 hr 40 min 12 sec)
Heartbeat CPU 0 instructions: 350000063 cycles: 163967251 heartbeat IPC: 1.492 cumulative IPC: 1.468 (Simulation time: 00 hr 41 min 35 sec)
Heartbeat CPU 0 instructions: 360000067 cycles: 170756158 heartbeat IPC: 1.473 cumulative IPC: 1.468 (Simulation time: 00 hr 42 min 59 sec)
Heartbeat CPU 0 instructions: 370000068 cycles: 177634318 heartbeat IPC: 1.454 cumulative IPC: 1.467 (Simulation time: 00 hr 44 min 27 sec)
Heartbeat CPU 0 instructions: 380000069 cycles: 184151715 heartbeat IPC: 1.534 cumulative IPC: 1.471 (Simulation time: 00 hr 45 min 50 sec)
Heartbeat CPU 0 instructions: 390000071 cycles: 190910799 heartbeat IPC: 1.479 cumulative IPC: 1.471 (Simulation time: 00 hr 47 min 12 sec)
Heartbeat CPU 0 instructions: 400000071 cycles: 197756530 heartbeat IPC: 1.461 cumulative IPC: 1.471 (Simulation time: 00 hr 48 min 36 sec)
Heartbeat CPU 0 instructions: 410000075 cycles: 204737126 heartbeat IPC: 1.433 cumulative IPC: 1.469 (Simulation time: 00 hr 50 min 00 sec)
Heartbeat CPU 0 instructions: 420000076 cycles: 211385526 heartbeat IPC: 1.504 cumulative IPC: 1.47 (Simulation time: 00 hr 51 min 25 sec)
Heartbeat CPU 0 instructions: 430000079 cycles: 217817149 heartbeat IPC: 1.555 cumulative IPC: 1.474 (Simulation time: 00 hr 52 min 46 sec)
Heartbeat CPU 0 instructions: 440000079 cycles: 224453119 heartbeat IPC: 1.507 cumulative IPC: 1.475 (Simulation time: 00 hr 54 min 13 sec)
Heartbeat CPU 0 instructions: 450000083 cycles: 231235078 heartbeat IPC: 1.475 cumulative IPC: 1.475 (Simulation time: 00 hr 55 min 35 sec)
Heartbeat CPU 0 instructions: 460000083 cycles: 237961812 heartbeat IPC: 1.487 cumulative IPC: 1.476 (Simulation time: 00 hr 56 min 57 sec)
Heartbeat CPU 0 instructions: 470000083 cycles: 244413550 heartbeat IPC: 1.55 cumulative IPC: 1.478 (Simulation time: 00 hr 58 min 19 sec)
Heartbeat CPU 0 instructions: 480000084 cycles: 250871177 heartbeat IPC: 1.549 cumulative IPC: 1.481 (Simulation time: 00 hr 59 min 41 sec)
Heartbeat CPU 0 instructions: 490000084 cycles: 257561499 heartbeat IPC: 1.495 cumulative IPC: 1.481 (Simulation time: 01 hr 01 min 02 sec)
Heartbeat CPU 0 instructions: 500000087 cycles: 264369641 heartbeat IPC: 1.469 cumulative IPC: 1.481 (Simulation time: 01 hr 02 min 24 sec)
Heartbeat CPU 0 instructions: 510000089 cycles: 271008855 heartbeat IPC: 1.506 cumulative IPC: 1.482 (Simulation time: 01 hr 03 min 46 sec)
Heartbeat CPU 0 instructions: 520000090 cycles: 277673015 heartbeat IPC: 1.501 cumulative IPC: 1.482 (Simulation time: 01 hr 05 min 08 sec)
Heartbeat CPU 0 instructions: 530000094 cycles: 284401141 heartbeat IPC: 1.486 cumulative IPC: 1.482 (Simulation time: 01 hr 06 min 31 sec)
Heartbeat CPU 0 instructions: 540000095 cycles: 291040693 heartbeat IPC: 1.506 cumulative IPC: 1.483 (Simulation time: 01 hr 07 min 54 sec)
Heartbeat CPU 0 instructions: 550000095 cycles: 297666718 heartbeat IPC: 1.509 cumulative IPC: 1.484 (Simulation time: 01 hr 09 min 17 sec)
Heartbeat CPU 0 instructions: 560000097 cycles: 304273365 heartbeat IPC: 1.514 cumulative IPC: 1.485 (Simulation time: 01 hr 10 min 39 sec)
Heartbeat CPU 0 instructions: 570000097 cycles: 310802445 heartbeat IPC: 1.532 cumulative IPC: 1.486 (Simulation time: 01 hr 12 min 04 sec)
Heartbeat CPU 0 instructions: 580000097 cycles: 317530809 heartbeat IPC: 1.486 cumulative IPC: 1.486 (Simulation time: 01 hr 13 min 29 sec)
Heartbeat CPU 0 instructions: 590000097 cycles: 324491963 heartbeat IPC: 1.437 cumulative IPC: 1.484 (Simulation time: 01 hr 14 min 54 sec)
Heartbeat CPU 0 instructions: 600000097 cycles: 331243102 heartbeat IPC: 1.481 cumulative IPC: 1.484 (Simulation time: 01 hr 16 min 16 sec)
Heartbeat CPU 0 instructions: 610000099 cycles: 338170660 heartbeat IPC: 1.444 cumulative IPC: 1.483 (Simulation time: 01 hr 17 min 39 sec)
Heartbeat CPU 0 instructions: 620000101 cycles: 344933130 heartbeat IPC: 1.479 cumulative IPC: 1.483 (Simulation time: 01 hr 19 min 02 sec)
Heartbeat CPU 0 instructions: 630000102 cycles: 351666529 heartbeat IPC: 1.485 cumulative IPC: 1.483 (Simulation time: 01 hr 20 min 25 sec)
Heartbeat CPU 0 instructions: 640000102 cycles: 358433397 heartbeat IPC: 1.478 cumulative IPC: 1.483 (Simulation time: 01 hr 21 min 47 sec)
Heartbeat CPU 0 instructions: 650000103 cycles: 365201992 heartbeat IPC: 1.477 cumulative IPC: 1.483 (Simulation time: 01 hr 23 min 09 sec)
Heartbeat CPU 0 instructions: 660000106 cycles: 371907881 heartbeat IPC: 1.491 cumulative IPC: 1.483 (Simulation time: 01 hr 24 min 30 sec)
Heartbeat CPU 0 instructions: 670000108 cycles: 378356352 heartbeat IPC: 1.551 cumulative IPC: 1.485 (Simulation time: 01 hr 25 min 50 sec)
Heartbeat CPU 0 instructions: 680000111 cycles: 384921691 heartbeat IPC: 1.523 cumulative IPC: 1.485 (Simulation time: 01 hr 27 min 11 sec)
Heartbeat CPU 0 instructions: 690000112 cycles: 391815166 heartbeat IPC: 1.451 cumulative IPC: 1.485 (Simulation time: 01 hr 28 min 34 sec)
Heartbeat CPU 0 instructions: 700000113 cycles: 398675555 heartbeat IPC: 1.458 cumulative IPC: 1.484 (Simulation time: 01 hr 29 min 58 sec)
Heartbeat CPU 0 instructions: 710000113 cycles: 405301585 heartbeat IPC: 1.509 cumulative IPC: 1.485 (Simulation time: 01 hr 31 min 20 sec)
Heartbeat CPU 0 instructions: 720000115 cycles: 411872882 heartbeat IPC: 1.522 cumulative IPC: 1.485 (Simulation time: 01 hr 32 min 42 sec)
Heartbeat CPU 0 instructions: 730000118 cycles: 418532453 heartbeat IPC: 1.502 cumulative IPC: 1.486 (Simulation time: 01 hr 34 min 03 sec)
Heartbeat CPU 0 instructions: 740000120 cycles: 425132745 heartbeat IPC: 1.515 cumulative IPC: 1.486 (Simulation time: 01 hr 35 min 23 sec)
Heartbeat CPU 0 instructions: 750000121 cycles: 432018221 heartbeat IPC: 1.452 cumulative IPC: 1.486 (Simulation time: 01 hr 36 min 48 sec)
Heartbeat CPU 0 instructions: 760000123 cycles: 438770575 heartbeat IPC: 1.481 cumulative IPC: 1.485 (Simulation time: 01 hr 38 min 10 sec)
Heartbeat CPU 0 instructions: 770000123 cycles: 445581964 heartbeat IPC: 1.468 cumulative IPC: 1.485 (Simulation time: 01 hr 39 min 32 sec)
Heartbeat CPU 0 instructions: 780000127 cycles: 452388834 heartbeat IPC: 1.469 cumulative IPC: 1.485 (Simulation time: 01 hr 40 min 55 sec)
Heartbeat CPU 0 instructions: 790000128 cycles: 458968168 heartbeat IPC: 1.52 cumulative IPC: 1.485 (Simulation time: 01 hr 42 min 17 sec)
Heartbeat CPU 0 instructions: 800000130 cycles: 465675966 heartbeat IPC: 1.491 cumulative IPC: 1.486 (Simulation time: 01 hr 43 min 38 sec)
Heartbeat CPU 0 instructions: 810000130 cycles: 472390089 heartbeat IPC: 1.489 cumulative IPC: 1.486 (Simulation time: 01 hr 45 min 00 sec)
Heartbeat CPU 0 instructions: 820000130 cycles: 478895389 heartbeat IPC: 1.537 cumulative IPC: 1.486 (Simulation time: 01 hr 46 min 21 sec)
Heartbeat CPU 0 instructions: 830000131 cycles: 485349444 heartbeat IPC: 1.549 cumulative IPC: 1.487 (Simulation time: 01 hr 47 min 43 sec)
Heartbeat CPU 0 instructions: 840000132 cycles: 491787583 heartbeat IPC: 1.553 cumulative IPC: 1.488 (Simulation time: 01 hr 49 min 01 sec)
Heartbeat CPU 0 instructions: 850000135 cycles: 498748938 heartbeat IPC: 1.437 cumulative IPC: 1.488 (Simulation time: 01 hr 50 min 23 sec)
Heartbeat CPU 0 instructions: 860000135 cycles: 505460309 heartbeat IPC: 1.49 cumulative IPC: 1.488 (Simulation time: 01 hr 51 min 41 sec)
Heartbeat CPU 0 instructions: 870000135 cycles: 511885146 heartbeat IPC: 1.556 cumulative IPC: 1.489 (Simulation time: 01 hr 52 min 58 sec)
Heartbeat CPU 0 instructions: 880000138 cycles: 518645467 heartbeat IPC: 1.479 cumulative IPC: 1.488 (Simulation time: 01 hr 54 min 17 sec)
Heartbeat CPU 0 instructions: 890000138 cycles: 525459178 heartbeat IPC: 1.468 cumulative IPC: 1.488 (Simulation time: 01 hr 55 min 36 sec)
Heartbeat CPU 0 instructions: 900000138 cycles: 532345230 heartbeat IPC: 1.452 cumulative IPC: 1.488 (Simulation time: 01 hr 56 min 56 sec)
Heartbeat CPU 0 instructions: 910000138 cycles: 539212939 heartbeat IPC: 1.456 cumulative IPC: 1.487 (Simulation time: 01 hr 58 min 16 sec)
Heartbeat CPU 0 instructions: 920000142 cycles: 545857135 heartbeat IPC: 1.505 cumulative IPC: 1.487 (Simulation time: 01 hr 59 min 34 sec)
Heartbeat CPU 0 instructions: 930000143 cycles: 552574203 heartbeat IPC: 1.489 cumulative IPC: 1.487 (Simulation time: 02 hr 00 min 53 sec)
Heartbeat CPU 0 instructions: 940000145 cycles: 558880838 heartbeat IPC: 1.586 cumulative IPC: 1.489 (Simulation time: 02 hr 02 min 10 sec)
Heartbeat CPU 0 instructions: 950000149 cycles: 565287313 heartbeat IPC: 1.561 cumulative IPC: 1.49 (Simulation time: 02 hr 03 min 27 sec)
Heartbeat CPU 0 instructions: 960000149 cycles: 571630265 heartbeat IPC: 1.577 cumulative IPC: 1.491 (Simulation time: 02 hr 04 min 44 sec)
Heartbeat CPU 0 instructions: 970000149 cycles: 578111269 heartbeat IPC: 1.543 cumulative IPC: 1.491 (Simulation time: 02 hr 06 min 02 sec)
Heartbeat CPU 0 instructions: 980000150 cycles: 584834617 heartbeat IPC: 1.487 cumulative IPC: 1.491 (Simulation time: 02 hr 07 min 21 sec)
Heartbeat CPU 0 instructions: 990000151 cycles: 591440135 heartbeat IPC: 1.514 cumulative IPC: 1.492 (Simulation time: 02 hr 08 min 38 sec)
Heartbeat CPU 0 instructions: 1000000154 cycles: 598580857 heartbeat IPC: 1.4 cumulative IPC: 1.49 (Simulation time: 02 hr 10 min 00 sec)
Heartbeat CPU 0 instructions: 1010000154 cycles: 605279188 heartbeat IPC: 1.493 cumulative IPC: 1.49 (Simulation time: 02 hr 11 min 17 sec)
Heartbeat CPU 0 instructions: 1020000155 cycles: 612118131 heartbeat IPC: 1.462 cumulative IPC: 1.49 (Simulation time: 02 hr 12 min 32 sec)
Heartbeat CPU 0 instructions: 1030000159 cycles: 619051507 heartbeat IPC: 1.442 cumulative IPC: 1.489 (Simulation time: 02 hr 13 min 48 sec)
Heartbeat CPU 0 instructions: 1040000163 cycles: 625919341 heartbeat IPC: 1.456 cumulative IPC: 1.489 (Simulation time: 02 hr 15 min 03 sec)
Heartbeat CPU 0 instructions: 1050000166 cycles: 632614318 heartbeat IPC: 1.494 cumulative IPC: 1.489 (Simulation time: 02 hr 16 min 20 sec)
Heartbeat CPU 0 instructions: 1060000168 cycles: 639616854 heartbeat IPC: 1.428 cumulative IPC: 1.488 (Simulation time: 02 hr 17 min 40 sec)
Heartbeat CPU 0 instructions: 1070000171 cycles: 646452830 heartbeat IPC: 1.463 cumulative IPC: 1.488 (Simulation time: 02 hr 18 min 54 sec)
Heartbeat CPU 0 instructions: 1080000171 cycles: 653278481 heartbeat IPC: 1.465 cumulative IPC: 1.488 (Simulation time: 02 hr 20 min 08 sec)
Heartbeat CPU 0 instructions: 1090000172 cycles: 660029999 heartbeat IPC: 1.481 cumulative IPC: 1.488 (Simulation time: 02 hr 21 min 23 sec)
Heartbeat CPU 0 instructions: 1100000172 cycles: 666622974 heartbeat IPC: 1.517 cumulative IPC: 1.488 (Simulation time: 02 hr 22 min 38 sec)
Heartbeat CPU 0 instructions: 1110000174 cycles: 673539216 heartbeat IPC: 1.446 cumulative IPC: 1.488 (Simulation time: 02 hr 23 min 53 sec)
Heartbeat CPU 0 instructions: 1120000174 cycles: 680522058 heartbeat IPC: 1.432 cumulative IPC: 1.487 (Simulation time: 02 hr 25 min 08 sec)
Heartbeat CPU 0 instructions: 1130000174 cycles: 687380243 heartbeat IPC: 1.458 cumulative IPC: 1.487 (Simulation time: 02 hr 26 min 23 sec)
Heartbeat CPU 0 instructions: 1140000177 cycles: 694041523 heartbeat IPC: 1.501 cumulative IPC: 1.487 (Simulation time: 02 hr 27 min 38 sec)
Heartbeat CPU 0 instructions: 1150000179 cycles: 700929108 heartbeat IPC: 1.452 cumulative IPC: 1.486 (Simulation time: 02 hr 28 min 54 sec)
Heartbeat CPU 0 instructions: 1160000180 cycles: 707780163 heartbeat IPC: 1.46 cumulative IPC: 1.486 (Simulation time: 02 hr 30 min 10 sec)
Heartbeat CPU 0 instructions: 1170000181 cycles: 714634122 heartbeat IPC: 1.459 cumulative IPC: 1.486 (Simulation time: 02 hr 31 min 26 sec)
Heartbeat CPU 0 instructions: 1180000183 cycles: 721497708 heartbeat IPC: 1.457 cumulative IPC: 1.485 (Simulation time: 02 hr 32 min 41 sec)
Heartbeat CPU 0 instructions: 1190000185 cycles: 728246848 heartbeat IPC: 1.482 cumulative IPC: 1.485 (Simulation time: 02 hr 33 min 58 sec)
Simulation finished CPU 0 instructions: 1000000001 cycles: 672926501 cumulative IPC: 1.486 (Simulation time: 02 hr 35 min 12 sec)
Simulation complete CPU 0 instructions: 1000000001 cycles: 672926501 cumulative IPC: 1.486 (Simulation time: 02 hr 35 min 12 sec)

ChampSim completed all CPUs

=== Simulation ===
CPU 0 runs /home/grads/b/bhavishya_k_s/ecen676/ChampSim/dpc3_traces/631.deepsjeng_s-928B.champsimtrace.xz

Region of Interest Statistics

CPU 0 cumulative IPC: 1.486 instructions: 1000000001 cycles: 672926501
CPU 0 Branch Prediction Accuracy: 91.69% MPKI: 12.28 Average ROB Occupancy at Mispredict: 40.16
Branch type MPKI
BRANCH_DIRECT_JUMP: 0.02052
BRANCH_INDIRECT: 0.009483
BRANCH_CONDITIONAL: 11.77
BRANCH_DIRECT_CALL: 0.01892
BRANCH_INDIRECT_CALL: 0
BRANCH_RETURN: 0.4582

cpu0->cpu0_STLB TOTAL        ACCESS:     266321 HIT:      94671 MISS:     171650 MSHR_MERGE:          0
cpu0->cpu0_STLB LOAD         ACCESS:     266321 HIT:      94671 MISS:     171650 MSHR_MERGE:          0
cpu0->cpu0_STLB RFO          ACCESS:          0 HIT:          0 MISS:          0 MSHR_MERGE:          0
cpu0->cpu0_STLB PREFETCH     ACCESS:          0 HIT:          0 MISS:          0 MSHR_MERGE:          0
cpu0->cpu0_STLB WRITE        ACCESS:          0 HIT:          0 MISS:          0 MSHR_MERGE:          0
cpu0->cpu0_STLB TRANSLATION  ACCESS:          0 HIT:          0 MISS:          0 MSHR_MERGE:          0
cpu0->cpu0_STLB PREFETCH REQUESTED:          0 ISSUED:          0 USEFUL:          0 USELESS:          0
cpu0->cpu0_STLB AVERAGE MISS LATENCY: 601.7 cycles
cpu0->cpu0_L2C TOTAL        ACCESS:    3486911 HIT:    2465449 MISS:    1021462 MSHR_MERGE:      95211
cpu0->cpu0_L2C LOAD         ACCESS:    1485550 HIT:    1201517 MISS:     284033 MSHR_MERGE:          1
cpu0->cpu0_L2C RFO          ACCESS:     247705 HIT:     235031 MISS:      12674 MSHR_MERGE:          0
cpu0->cpu0_L2C PREFETCH     ACCESS:     946321 HIT:     462319 MISS:     484002 MSHR_MERGE:      95210
cpu0->cpu0_L2C WRITE        ACCESS:     479778 HIT:     478963 MISS:        815 MSHR_MERGE:          0
cpu0->cpu0_L2C TRANSLATION  ACCESS:     327557 HIT:      87619 MISS:     239938 MSHR_MERGE:          0
cpu0->cpu0_L2C PREFETCH REQUESTED:     946321 ISSUED:     946321 USEFUL:         31 USELESS:        122
cpu0->cpu0_L2C AVERAGE MISS LATENCY: 168.4 cycles
cpu0->cpu0_L1I TOTAL        ACCESS:  119626905 HIT:  118458464 MISS:    1168441 MSHR_MERGE:     242454
cpu0->cpu0_L1I LOAD         ACCESS:  119626905 HIT:  118458464 MISS:    1168441 MSHR_MERGE:     242454
cpu0->cpu0_L1I RFO          ACCESS:          0 HIT:          0 MISS:          0 MSHR_MERGE:          0
cpu0->cpu0_L1I PREFETCH     ACCESS:          0 HIT:          0 MISS:          0 MSHR_MERGE:          0
cpu0->cpu0_L1I WRITE        ACCESS:          0 HIT:          0 MISS:          0 MSHR_MERGE:          0
cpu0->cpu0_L1I TRANSLATION  ACCESS:          0 HIT:          0 MISS:          0 MSHR_MERGE:          0
cpu0->cpu0_L1I PREFETCH REQUESTED:          0 ISSUED:          0 USEFUL:          0 USELESS:          0
cpu0->cpu0_L1I AVERAGE MISS LATENCY: 7.261 cycles
cpu0->cpu0_L1D TOTAL        ACCESS:  296794238 HIT:  295011008 MISS:    1783230 MSHR_MERGE:     648373
cpu0->cpu0_L1D LOAD         ACCESS:  177731478 HIT:  176933903 MISS:     797575 MSHR_MERGE:     237981
cpu0->cpu0_L1D RFO          ACCESS:          0 HIT:          0 MISS:          0 MSHR_MERGE:          0
cpu0->cpu0_L1D PREFETCH     ACCESS:          0 HIT:          0 MISS:          0 MSHR_MERGE:          0
cpu0->cpu0_L1D WRITE        ACCESS:  118716753 HIT:  118059479 MISS:     657274 MSHR_MERGE:     409568
cpu0->cpu0_L1D TRANSLATION  ACCESS:     346007 HIT:      17626 MISS:     328381 MSHR_MERGE:        824
cpu0->cpu0_L1D PREFETCH REQUESTED:          0 ISSUED:          0 USEFUL:          0 USELESS:          0
cpu0->cpu0_L1D AVERAGE MISS LATENCY: 88.05 cycles
cpu0->cpu0_ITLB TOTAL        ACCESS:  102053885 HIT:  102053885 MISS:          0 MSHR_MERGE:          0
cpu0->cpu0_ITLB LOAD         ACCESS:  102053885 HIT:  102053885 MISS:          0 MSHR_MERGE:          0
cpu0->cpu0_ITLB RFO          ACCESS:          0 HIT:          0 MISS:          0 MSHR_MERGE:          0
cpu0->cpu0_ITLB PREFETCH     ACCESS:          0 HIT:          0 MISS:          0 MSHR_MERGE:          0
cpu0->cpu0_ITLB WRITE        ACCESS:          0 HIT:          0 MISS:          0 MSHR_MERGE:          0
cpu0->cpu0_ITLB TRANSLATION  ACCESS:          0 HIT:          0 MISS:          0 MSHR_MERGE:          0
cpu0->cpu0_ITLB PREFETCH REQUESTED:          0 ISSUED:          0 USEFUL:          0 USELESS:          0
cpu0->cpu0_ITLB AVERAGE MISS LATENCY: - cycles
cpu0->cpu0_DTLB TOTAL        ACCESS:  277202197 HIT:  276663894 MISS:     538303 MSHR_MERGE:     271982
cpu0->cpu0_DTLB LOAD         ACCESS:  277202197 HIT:  276663894 MISS:     538303 MSHR_MERGE:     271982
cpu0->cpu0_DTLB RFO          ACCESS:          0 HIT:          0 MISS:          0 MSHR_MERGE:          0
cpu0->cpu0_DTLB PREFETCH     ACCESS:          0 HIT:          0 MISS:          0 MSHR_MERGE:          0
cpu0->cpu0_DTLB WRITE        ACCESS:          0 HIT:          0 MISS:          0 MSHR_MERGE:          0
cpu0->cpu0_DTLB TRANSLATION  ACCESS:          0 HIT:          0 MISS:          0 MSHR_MERGE:          0
cpu0->cpu0_DTLB PREFETCH REQUESTED:          0 ISSUED:          0 USEFUL:          0 USELESS:          0
cpu0->cpu0_DTLB AVERAGE MISS LATENCY: 393.4 cycles
cpu0->LLC TOTAL        ACCESS:    1129618 HIT:     421940 MISS:     707678 MSHR_MERGE:       5466
cpu0->LLC LOAD         ACCESS:     284032 HIT:      21874 MISS:     262158 MSHR_MERGE:        181
cpu0->LLC RFO          ACCESS:      12674 HIT:       8133 MISS:       4541 MSHR_MERGE:         47
cpu0->LLC PREFETCH     ACCESS:     388792 HIT:     180708 MISS:     208084 MSHR_MERGE:       5238
cpu0->LLC WRITE        ACCESS:     204182 HIT:     200298 MISS:       3884 MSHR_MERGE:          0
cpu0->LLC TRANSLATION  ACCESS:     239938 HIT:      10927 MISS:     229011 MSHR_MERGE:          0
cpu0->LLC PREFETCH REQUESTED:          0 ISSUED:          0 USEFUL:          0 USELESS:          0
cpu0->LLC AVERAGE MISS LATENCY: 164.1 cycles

DRAM Statistics

Channel 0 RQ ROW_BUFFER_HIT:        232
  ROW_BUFFER_MISS:     698095
  AVG DBUS CONGESTED CYCLE: 8.34
Channel 0 WQ ROW_BUFFER_HIT:       8330
  ROW_BUFFER_MISS:     186243
  FULL:          0
Channel 0 REFRESHES ISSUED:      56078
