[VMEM] WARNING: physical memory size is smaller than virtual memory size.
WARNING: option --warmup_instructions is deprecated. Use --warmup-instructions instead.
WARNING: option --simulation_instructions is deprecated. Use --simulation-instructions instead.

*** ChampSim Multicore Out-of-Order Simulator ***
Warmup Instructions: 200000000
Simulation Instructions: 1000000000
Number of CPUs: 1
Page size: 4096

Initialize SIGNATURE TABLE
ST_SET: 1
ST_WAY: 256
ST_TAG_BIT: 16

Initialize PATTERN TABLE
PT_SET: 512
PT_WAY: 4
SIG_DELTA_BIT: 7
C_SIG_BIT: 4
C_DELTA_BIT: 4

Initialize PREFETCH FILTER
FILTER_SET: 1024
Off-chip DRAM Size: 16 GiB Channels: 1 Width: 64-bit Data Rate: 3205 MT/s
Heartbeat CPU 0 instructions: 10000003 cycles: 2523196 heartbeat IPC: 3.963 cumulative IPC: 3.963 (Simulation time: 00 hr 00 min 44 sec)
Heartbeat CPU 0 instructions: 20000003 cycles: 5023955 heartbeat IPC: 3.999 cumulative IPC: 3.981 (Simulation time: 00 hr 01 min 28 sec)
Heartbeat CPU 0 instructions: 30000004 cycles: 7524716 heartbeat IPC: 3.999 cumulative IPC: 3.987 (Simulation time: 00 hr 02 min 12 sec)
Heartbeat CPU 0 instructions: 40000007 cycles: 10025348 heartbeat IPC: 3.999 cumulative IPC: 3.99 (Simulation time: 00 hr 02 min 56 sec)
Heartbeat CPU 0 instructions: 50000010 cycles: 12526235 heartbeat IPC: 3.999 cumulative IPC: 3.992 (Simulation time: 00 hr 03 min 39 sec)
Heartbeat CPU 0 instructions: 60000013 cycles: 15026995 heartbeat IPC: 3.999 cumulative IPC: 3.993 (Simulation time: 00 hr 04 min 23 sec)
Heartbeat CPU 0 instructions: 70000013 cycles: 17527627 heartbeat IPC: 3.999 cumulative IPC: 3.994 (Simulation time: 00 hr 05 min 07 sec)
Heartbeat CPU 0 instructions: 80000013 cycles: 20028386 heartbeat IPC: 3.999 cumulative IPC: 3.994 (Simulation time: 00 hr 05 min 51 sec)
Heartbeat CPU 0 instructions: 90000015 cycles: 22529278 heartbeat IPC: 3.999 cumulative IPC: 3.995 (Simulation time: 00 hr 06 min 34 sec)
Heartbeat CPU 0 instructions: 100000019 cycles: 25030162 heartbeat IPC: 3.999 cumulative IPC: 3.995 (Simulation time: 00 hr 07 min 18 sec)
Heartbeat CPU 0 instructions: 110000019 cycles: 27530796 heartbeat IPC: 3.999 cumulative IPC: 3.996 (Simulation time: 00 hr 08 min 02 sec)
Heartbeat CPU 0 instructions: 120000022 cycles: 30031685 heartbeat IPC: 3.999 cumulative IPC: 3.996 (Simulation time: 00 hr 08 min 46 sec)
Heartbeat CPU 0 instructions: 130000025 cycles: 32532444 heartbeat IPC: 3.999 cumulative IPC: 3.996 (Simulation time: 00 hr 09 min 29 sec)
Heartbeat CPU 0 instructions: 140000027 cycles: 35033074 heartbeat IPC: 3.999 cumulative IPC: 3.996 (Simulation time: 00 hr 10 min 13 sec)
Heartbeat CPU 0 instructions: 150000027 cycles: 37533837 heartbeat IPC: 3.999 cumulative IPC: 3.996 (Simulation time: 00 hr 10 min 57 sec)
Heartbeat CPU 0 instructions: 160000029 cycles: 40034721 heartbeat IPC: 3.999 cumulative IPC: 3.997 (Simulation time: 00 hr 11 min 41 sec)
Heartbeat CPU 0 instructions: 170000029 cycles: 42535355 heartbeat IPC: 3.999 cumulative IPC: 3.997 (Simulation time: 00 hr 12 min 24 sec)
Heartbeat CPU 0 instructions: 180000031 cycles: 45036113 heartbeat IPC: 3.999 cumulative IPC: 3.997 (Simulation time: 00 hr 13 min 08 sec)
Heartbeat CPU 0 instructions: 190000034 cycles: 47536998 heartbeat IPC: 3.999 cumulative IPC: 3.997 (Simulation time: 00 hr 13 min 52 sec)
Warmup finished CPU 0 instructions: 200000001 cycles: 50037621 cumulative IPC: 3.997 (Simulation time: 00 hr 14 min 35 sec)
Warmup complete CPU 0 instructions: 200000001 cycles: 50037621 cumulative IPC: 3.997 (Simulation time: 00 hr 14 min 35 sec)
Heartbeat CPU 0 instructions: 200000036 cycles: 50037639 heartbeat IPC: 3.999 cumulative IPC: 1.944 (Simulation time: 00 hr 14 min 35 sec)
Heartbeat CPU 0 instructions: 210000037 cycles: 52947880 heartbeat IPC: 3.436 cumulative IPC: 3.436 (Simulation time: 00 hr 15 min 24 sec)
Heartbeat CPU 0 instructions: 220000039 cycles: 55862177 heartbeat IPC: 3.431 cumulative IPC: 3.434 (Simulation time: 00 hr 16 min 13 sec)
Heartbeat CPU 0 instructions: 230000042 cycles: 58774133 heartbeat IPC: 3.434 cumulative IPC: 3.434 (Simulation time: 00 hr 17 min 02 sec)
Heartbeat CPU 0 instructions: 240000043 cycles: 61685676 heartbeat IPC: 3.435 cumulative IPC: 3.434 (Simulation time: 00 hr 17 min 51 sec)
Heartbeat CPU 0 instructions: 250000045 cycles: 64591690 heartbeat IPC: 3.441 cumulative IPC: 3.435 (Simulation time: 00 hr 18 min 39 sec)
Heartbeat CPU 0 instructions: 260000048 cycles: 67491424 heartbeat IPC: 3.449 cumulative IPC: 3.438 (Simulation time: 00 hr 19 min 27 sec)
Heartbeat CPU 0 instructions: 270000049 cycles: 70391433 heartbeat IPC: 3.448 cumulative IPC: 3.439 (Simulation time: 00 hr 20 min 15 sec)
Heartbeat CPU 0 instructions: 280000052 cycles: 73291369 heartbeat IPC: 3.448 cumulative IPC: 3.44 (Simulation time: 00 hr 21 min 04 sec)
Heartbeat CPU 0 instructions: 290000052 cycles: 76191626 heartbeat IPC: 3.448 cumulative IPC: 3.441 (Simulation time: 00 hr 21 min 52 sec)
Heartbeat CPU 0 instructions: 300000055 cycles: 79091684 heartbeat IPC: 3.448 cumulative IPC: 3.442 (Simulation time: 00 hr 22 min 40 sec)
Heartbeat CPU 0 instructions: 310000058 cycles: 81991087 heartbeat IPC: 3.449 cumulative IPC: 3.443 (Simulation time: 00 hr 23 min 29 sec)
Heartbeat CPU 0 instructions: 320000060 cycles: 84891559 heartbeat IPC: 3.448 cumulative IPC: 3.443 (Simulation time: 00 hr 24 min 17 sec)
Heartbeat CPU 0 instructions: 330000060 cycles: 87791661 heartbeat IPC: 3.448 cumulative IPC: 3.443 (Simulation time: 00 hr 25 min 05 sec)
Heartbeat CPU 0 instructions: 340000061 cycles: 90691081 heartbeat IPC: 3.449 cumulative IPC: 3.444 (Simulation time: 00 hr 25 min 54 sec)
Heartbeat CPU 0 instructions: 350000065 cycles: 93590335 heartbeat IPC: 3.449 cumulative IPC: 3.444 (Simulation time: 00 hr 26 min 42 sec)
Heartbeat CPU 0 instructions: 360000066 cycles: 96490929 heartbeat IPC: 3.448 cumulative IPC: 3.444 (Simulation time: 00 hr 27 min 30 sec)
Heartbeat CPU 0 instructions: 370000070 cycles: 99390747 heartbeat IPC: 3.448 cumulative IPC: 3.445 (Simulation time: 00 hr 28 min 18 sec)
Heartbeat CPU 0 instructions: 380000073 cycles: 102290295 heartbeat IPC: 3.449 cumulative IPC: 3.445 (Simulation time: 00 hr 29 min 07 sec)
Heartbeat CPU 0 instructions: 390000077 cycles: 105190085 heartbeat IPC: 3.449 cumulative IPC: 3.445 (Simulation time: 00 hr 29 min 55 sec)
Heartbeat CPU 0 instructions: 400000077 cycles: 108090341 heartbeat IPC: 3.448 cumulative IPC: 3.445 (Simulation time: 00 hr 30 min 44 sec)
Heartbeat CPU 0 instructions: 410000080 cycles: 110989831 heartbeat IPC: 3.449 cumulative IPC: 3.445 (Simulation time: 00 hr 31 min 32 sec)
Heartbeat CPU 0 instructions: 420000081 cycles: 113889603 heartbeat IPC: 3.449 cumulative IPC: 3.445 (Simulation time: 00 hr 32 min 20 sec)
Heartbeat CPU 0 instructions: 430000085 cycles: 116789654 heartbeat IPC: 3.448 cumulative IPC: 3.446 (Simulation time: 00 hr 33 min 09 sec)
Heartbeat CPU 0 instructions: 440000085 cycles: 119689736 heartbeat IPC: 3.448 cumulative IPC: 3.446 (Simulation time: 00 hr 33 min 57 sec)
Heartbeat CPU 0 instructions: 450000087 cycles: 122589531 heartbeat IPC: 3.449 cumulative IPC: 3.446 (Simulation time: 00 hr 34 min 45 sec)
Heartbeat CPU 0 instructions: 460000091 cycles: 125489454 heartbeat IPC: 3.448 cumulative IPC: 3.446 (Simulation time: 00 hr 35 min 34 sec)
Heartbeat CPU 0 instructions: 470000091 cycles: 128390041 heartbeat IPC: 3.448 cumulative IPC: 3.446 (Simulation time: 00 hr 36 min 22 sec)
Heartbeat CPU 0 instructions: 480000091 cycles: 131289671 heartbeat IPC: 3.449 cumulative IPC: 3.446 (Simulation time: 00 hr 37 min 10 sec)
Heartbeat CPU 0 instructions: 490000095 cycles: 134190216 heartbeat IPC: 3.448 cumulative IPC: 3.446 (Simulation time: 00 hr 37 min 58 sec)
Heartbeat CPU 0 instructions: 500000097 cycles: 137090707 heartbeat IPC: 3.448 cumulative IPC: 3.446 (Simulation time: 00 hr 38 min 47 sec)
Heartbeat CPU 0 instructions: 510000099 cycles: 139992427 heartbeat IPC: 3.446 cumulative IPC: 3.446 (Simulation time: 00 hr 39 min 35 sec)
Heartbeat CPU 0 instructions: 520000099 cycles: 142894161 heartbeat IPC: 3.446 cumulative IPC: 3.446 (Simulation time: 00 hr 40 min 23 sec)
Heartbeat CPU 0 instructions: 530000101 cycles: 145796690 heartbeat IPC: 3.445 cumulative IPC: 3.446 (Simulation time: 00 hr 41 min 12 sec)
Heartbeat CPU 0 instructions: 540000104 cycles: 148698727 heartbeat IPC: 3.446 cumulative IPC: 3.446 (Simulation time: 00 hr 42 min 00 sec)
Heartbeat CPU 0 instructions: 550000108 cycles: 151601096 heartbeat IPC: 3.445 cumulative IPC: 3.446 (Simulation time: 00 hr 42 min 48 sec)
Heartbeat CPU 0 instructions: 560000112 cycles: 154504375 heartbeat IPC: 3.444 cumulative IPC: 3.446 (Simulation time: 00 hr 43 min 37 sec)
Heartbeat CPU 0 instructions: 570000113 cycles: 157407377 heartbeat IPC: 3.445 cumulative IPC: 3.446 (Simulation time: 00 hr 44 min 25 sec)
Heartbeat CPU 0 instructions: 580000115 cycles: 160309034 heartbeat IPC: 3.446 cumulative IPC: 3.446 (Simulation time: 00 hr 45 min 13 sec)
Heartbeat CPU 0 instructions: 590000115 cycles: 163211166 heartbeat IPC: 3.446 cumulative IPC: 3.446 (Simulation time: 00 hr 46 min 02 sec)
Heartbeat CPU 0 instructions: 600000117 cycles: 166114277 heartbeat IPC: 3.445 cumulative IPC: 3.446 (Simulation time: 00 hr 46 min 50 sec)
Heartbeat CPU 0 instructions: 610000117 cycles: 169017163 heartbeat IPC: 3.445 cumulative IPC: 3.446 (Simulation time: 00 hr 47 min 39 sec)
Heartbeat CPU 0 instructions: 620000120 cycles: 171919205 heartbeat IPC: 3.446 cumulative IPC: 3.446 (Simulation time: 00 hr 48 min 27 sec)
Heartbeat CPU 0 instructions: 630000123 cycles: 174821280 heartbeat IPC: 3.446 cumulative IPC: 3.446 (Simulation time: 00 hr 49 min 15 sec)
Heartbeat CPU 0 instructions: 640000123 cycles: 177724154 heartbeat IPC: 3.445 cumulative IPC: 3.446 (Simulation time: 00 hr 50 min 04 sec)
Heartbeat CPU 0 instructions: 650000125 cycles: 180625961 heartbeat IPC: 3.446 cumulative IPC: 3.446 (Simulation time: 00 hr 50 min 52 sec)
Heartbeat CPU 0 instructions: 660000125 cycles: 183529021 heartbeat IPC: 3.445 cumulative IPC: 3.446 (Simulation time: 00 hr 51 min 40 sec)
Heartbeat CPU 0 instructions: 670000127 cycles: 186433143 heartbeat IPC: 3.443 cumulative IPC: 3.446 (Simulation time: 00 hr 52 min 29 sec)
Heartbeat CPU 0 instructions: 680000131 cycles: 189336286 heartbeat IPC: 3.445 cumulative IPC: 3.446 (Simulation time: 00 hr 53 min 17 sec)
Heartbeat CPU 0 instructions: 690000132 cycles: 192235834 heartbeat IPC: 3.449 cumulative IPC: 3.446 (Simulation time: 00 hr 54 min 05 sec)
Heartbeat CPU 0 instructions: 700000132 cycles: 195134729 heartbeat IPC: 3.45 cumulative IPC: 3.446 (Simulation time: 00 hr 54 min 53 sec)
Heartbeat CPU 0 instructions: 710000134 cycles: 198036043 heartbeat IPC: 3.447 cumulative IPC: 3.446 (Simulation time: 00 hr 55 min 42 sec)
Heartbeat CPU 0 instructions: 720000134 cycles: 200935196 heartbeat IPC: 3.449 cumulative IPC: 3.446 (Simulation time: 00 hr 56 min 30 sec)
Heartbeat CPU 0 instructions: 730000138 cycles: 203835020 heartbeat IPC: 3.448 cumulative IPC: 3.446 (Simulation time: 00 hr 57 min 18 sec)
Heartbeat CPU 0 instructions: 740000139 cycles: 206735130 heartbeat IPC: 3.448 cumulative IPC: 3.446 (Simulation time: 00 hr 58 min 07 sec)
Heartbeat CPU 0 instructions: 750000140 cycles: 209634744 heartbeat IPC: 3.449 cumulative IPC: 3.446 (Simulation time: 00 hr 58 min 55 sec)
Heartbeat CPU 0 instructions: 760000142 cycles: 212533966 heartbeat IPC: 3.449 cumulative IPC: 3.446 (Simulation time: 00 hr 59 min 43 sec)
Heartbeat CPU 0 instructions: 770000142 cycles: 215434921 heartbeat IPC: 3.447 cumulative IPC: 3.446 (Simulation time: 01 hr 00 min 31 sec)
Heartbeat CPU 0 instructions: 780000146 cycles: 218334452 heartbeat IPC: 3.449 cumulative IPC: 3.446 (Simulation time: 01 hr 01 min 20 sec)
Heartbeat CPU 0 instructions: 790000147 cycles: 221234437 heartbeat IPC: 3.448 cumulative IPC: 3.446 (Simulation time: 01 hr 02 min 08 sec)
Heartbeat CPU 0 instructions: 800000148 cycles: 224134243 heartbeat IPC: 3.449 cumulative IPC: 3.446 (Simulation time: 01 hr 02 min 56 sec)
Heartbeat CPU 0 instructions: 810000148 cycles: 227034209 heartbeat IPC: 3.448 cumulative IPC: 3.446 (Simulation time: 01 hr 03 min 44 sec)
Heartbeat CPU 0 instructions: 820000148 cycles: 229934548 heartbeat IPC: 3.448 cumulative IPC: 3.446 (Simulation time: 01 hr 04 min 33 sec)
Heartbeat CPU 0 instructions: 830000151 cycles: 232834587 heartbeat IPC: 3.448 cumulative IPC: 3.446 (Simulation time: 01 hr 05 min 21 sec)
Heartbeat CPU 0 instructions: 840000152 cycles: 235735008 heartbeat IPC: 3.448 cumulative IPC: 3.446 (Simulation time: 01 hr 06 min 09 sec)
Heartbeat CPU 0 instructions: 850000156 cycles: 238634976 heartbeat IPC: 3.448 cumulative IPC: 3.446 (Simulation time: 01 hr 06 min 58 sec)
Heartbeat CPU 0 instructions: 860000159 cycles: 241534712 heartbeat IPC: 3.449 cumulative IPC: 3.447 (Simulation time: 01 hr 07 min 46 sec)
Heartbeat CPU 0 instructions: 870000162 cycles: 244434552 heartbeat IPC: 3.448 cumulative IPC: 3.447 (Simulation time: 01 hr 08 min 34 sec)
Heartbeat CPU 0 instructions: 880000166 cycles: 247334526 heartbeat IPC: 3.448 cumulative IPC: 3.447 (Simulation time: 01 hr 09 min 23 sec)
Heartbeat CPU 0 instructions: 890000166 cycles: 250233633 heartbeat IPC: 3.449 cumulative IPC: 3.447 (Simulation time: 01 hr 10 min 11 sec)
Heartbeat CPU 0 instructions: 900000169 cycles: 253133141 heartbeat IPC: 3.449 cumulative IPC: 3.447 (Simulation time: 01 hr 10 min 59 sec)
Heartbeat CPU 0 instructions: 910000169 cycles: 256034315 heartbeat IPC: 3.447 cumulative IPC: 3.447 (Simulation time: 01 hr 11 min 48 sec)
Heartbeat CPU 0 instructions: 920000170 cycles: 258934698 heartbeat IPC: 3.448 cumulative IPC: 3.447 (Simulation time: 01 hr 12 min 36 sec)
Heartbeat CPU 0 instructions: 930000172 cycles: 261835856 heartbeat IPC: 3.447 cumulative IPC: 3.447 (Simulation time: 01 hr 13 min 24 sec)
Heartbeat CPU 0 instructions: 940000175 cycles: 264737119 heartbeat IPC: 3.447 cumulative IPC: 3.447 (Simulation time: 01 hr 14 min 13 sec)
Heartbeat CPU 0 instructions: 950000175 cycles: 267636809 heartbeat IPC: 3.449 cumulative IPC: 3.447 (Simulation time: 01 hr 15 min 01 sec)
Heartbeat CPU 0 instructions: 960000179 cycles: 270536660 heartbeat IPC: 3.448 cumulative IPC: 3.447 (Simulation time: 01 hr 15 min 49 sec)
Heartbeat CPU 0 instructions: 970000179 cycles: 273436412 heartbeat IPC: 3.449 cumulative IPC: 3.447 (Simulation time: 01 hr 16 min 38 sec)
Heartbeat CPU 0 instructions: 980000181 cycles: 276341085 heartbeat IPC: 3.443 cumulative IPC: 3.447 (Simulation time: 01 hr 17 min 26 sec)
Heartbeat CPU 0 instructions: 990000182 cycles: 279250811 heartbeat IPC: 3.437 cumulative IPC: 3.447 (Simulation time: 01 hr 18 min 14 sec)
Heartbeat CPU 0 instructions: 1000000182 cycles: 282169651 heartbeat IPC: 3.426 cumulative IPC: 3.446 (Simulation time: 01 hr 19 min 03 sec)
Heartbeat CPU 0 instructions: 1010000186 cycles: 285095115 heartbeat IPC: 3.418 cumulative IPC: 3.446 (Simulation time: 01 hr 19 min 52 sec)
Heartbeat CPU 0 instructions: 1020000187 cycles: 288025021 heartbeat IPC: 3.413 cumulative IPC: 3.446 (Simulation time: 01 hr 20 min 40 sec)
Heartbeat CPU 0 instructions: 1030000188 cycles: 290954520 heartbeat IPC: 3.414 cumulative IPC: 3.445 (Simulation time: 01 hr 21 min 29 sec)
Heartbeat CPU 0 instructions: 1040000190 cycles: 293882068 heartbeat IPC: 3.416 cumulative IPC: 3.445 (Simulation time: 01 hr 22 min 18 sec)
Heartbeat CPU 0 instructions: 1050000193 cycles: 296809179 heartbeat IPC: 3.416 cumulative IPC: 3.444 (Simulation time: 01 hr 23 min 06 sec)
Heartbeat CPU 0 instructions: 1060000193 cycles: 299742224 heartbeat IPC: 3.409 cumulative IPC: 3.444 (Simulation time: 01 hr 23 min 55 sec)
Heartbeat CPU 0 instructions: 1070000196 cycles: 302676580 heartbeat IPC: 3.408 cumulative IPC: 3.444 (Simulation time: 01 hr 24 min 44 sec)
Heartbeat CPU 0 instructions: 1080000196 cycles: 305609238 heartbeat IPC: 3.41 cumulative IPC: 3.443 (Simulation time: 01 hr 25 min 32 sec)
Heartbeat CPU 0 instructions: 1090000196 cycles: 308539093 heartbeat IPC: 3.413 cumulative IPC: 3.443 (Simulation time: 01 hr 26 min 21 sec)
Heartbeat CPU 0 instructions: 1100000198 cycles: 311466363 heartbeat IPC: 3.416 cumulative IPC: 3.443 (Simulation time: 01 hr 27 min 10 sec)
Heartbeat CPU 0 instructions: 1110000201 cycles: 314395540 heartbeat IPC: 3.414 cumulative IPC: 3.442 (Simulation time: 01 hr 27 min 59 sec)
Heartbeat CPU 0 instructions: 1120000203 cycles: 317325855 heartbeat IPC: 3.413 cumulative IPC: 3.442 (Simulation time: 01 hr 28 min 47 sec)
Heartbeat CPU 0 instructions: 1130000204 cycles: 320259084 heartbeat IPC: 3.409 cumulative IPC: 3.442 (Simulation time: 01 hr 29 min 36 sec)
Heartbeat CPU 0 instructions: 1140000204 cycles: 323196719 heartbeat IPC: 3.404 cumulative IPC: 3.441 (Simulation time: 01 hr 30 min 25 sec)
Heartbeat CPU 0 instructions: 1150000204 cycles: 326132853 heartbeat IPC: 3.406 cumulative IPC: 3.441 (Simulation time: 01 hr 31 min 14 sec)
Heartbeat CPU 0 instructions: 1160000207 cycles: 329061881 heartbeat IPC: 3.414 cumulative IPC: 3.441 (Simulation time: 01 hr 32 min 02 sec)
Heartbeat CPU 0 instructions: 1170000208 cycles: 331985343 heartbeat IPC: 3.421 cumulative IPC: 3.44 (Simulation time: 01 hr 32 min 51 sec)
Heartbeat CPU 0 instructions: 1180000212 cycles: 334903718 heartbeat IPC: 3.427 cumulative IPC: 3.44 (Simulation time: 01 hr 33 min 40 sec)
Heartbeat CPU 0 instructions: 1190000213 cycles: 337817504 heartbeat IPC: 3.432 cumulative IPC: 3.44 (Simulation time: 01 hr 34 min 28 sec)
Simulation finished CPU 0 instructions: 1000000002 cycles: 290685308 cumulative IPC: 3.44 (Simulation time: 01 hr 35 min 16 sec)
Simulation complete CPU 0 instructions: 1000000002 cycles: 290685308 cumulative IPC: 3.44 (Simulation time: 01 hr 35 min 16 sec)

ChampSim completed all CPUs

=== Simulation ===
CPU 0 runs /home/grads/r/raveena_manasi/ECEN_676/ChampSim/dpc3_traces/638.imagick_s-10316B.champsimtrace.xz

Region of Interest Statistics

CPU 0 cumulative IPC: 3.44 instructions: 1000000002 cycles: 290685308
CPU 0 Branch Prediction Accuracy: 99.7% MPKI: 0.3128 Average ROB Occupancy at Mispredict: 348.6
Branch type MPKI
BRANCH_DIRECT_JUMP: 1e-06
BRANCH_INDIRECT: 0
BRANCH_CONDITIONAL: 0.3128
BRANCH_DIRECT_CALL: 0
BRANCH_INDIRECT_CALL: 0
BRANCH_RETURN: 0

cpu0->cpu0_STLB TOTAL        ACCESS:     463807 HIT:     463196 MISS:        611 MSHR_MERGE:          0
cpu0->cpu0_STLB LOAD         ACCESS:     463807 HIT:     463196 MISS:        611 MSHR_MERGE:          0
cpu0->cpu0_STLB RFO          ACCESS:          0 HIT:          0 MISS:          0 MSHR_MERGE:          0
cpu0->cpu0_STLB PREFETCH     ACCESS:          0 HIT:          0 MISS:          0 MSHR_MERGE:          0
cpu0->cpu0_STLB WRITE        ACCESS:          0 HIT:          0 MISS:          0 MSHR_MERGE:          0
cpu0->cpu0_STLB TRANSLATION  ACCESS:          0 HIT:          0 MISS:          0 MSHR_MERGE:          0
cpu0->cpu0_STLB PREFETCH REQUESTED:          0 ISSUED:          0 USEFUL:          0 USELESS:          0
cpu0->cpu0_STLB AVERAGE MISS LATENCY: 216.4 cycles
cpu0->cpu0_L2C TOTAL        ACCESS:   98219676 HIT:   84624465 MISS:   13595211 MSHR_MERGE:       4389
cpu0->cpu0_L2C LOAD         ACCESS:    8893745 HIT:    8831062 MISS:      62683 MSHR_MERGE:         99
cpu0->cpu0_L2C RFO          ACCESS:       5928 HIT:       5269 MISS:        659 MSHR_MERGE:          0
cpu0->cpu0_L2C PREFETCH     ACCESS:   89305098 HIT:   75773244 MISS:   13531854 MSHR_MERGE:       4290
cpu0->cpu0_L2C WRITE        ACCESS:      14294 HIT:      14294 MISS:          0 MSHR_MERGE:          0
cpu0->cpu0_L2C TRANSLATION  ACCESS:        611 HIT:        596 MISS:         15 MSHR_MERGE:          0
cpu0->cpu0_L2C PREFETCH REQUESTED:  100548616 ISSUED:   89305112 USEFUL:      79490 USELESS:       2219
cpu0->cpu0_L2C AVERAGE MISS LATENCY: 17.38 cycles
cpu0->cpu0_L1I TOTAL        ACCESS:  123634166 HIT:  123634166 MISS:          0 MSHR_MERGE:          0
cpu0->cpu0_L1I LOAD         ACCESS:  123634166 HIT:  123634166 MISS:          0 MSHR_MERGE:          0
cpu0->cpu0_L1I RFO          ACCESS:          0 HIT:          0 MISS:          0 MSHR_MERGE:          0
cpu0->cpu0_L1I PREFETCH     ACCESS:          0 HIT:          0 MISS:          0 MSHR_MERGE:          0
cpu0->cpu0_L1I WRITE        ACCESS:          0 HIT:          0 MISS:          0 MSHR_MERGE:          0
cpu0->cpu0_L1I TRANSLATION  ACCESS:          0 HIT:          0 MISS:          0 MSHR_MERGE:          0
cpu0->cpu0_L1I PREFETCH REQUESTED:          0 ISSUED:          0 USEFUL:          0 USELESS:          0
cpu0->cpu0_L1I AVERAGE MISS LATENCY: - cycles
cpu0->cpu0_L1D TOTAL        ACCESS:  111597059 HIT:   84021329 MISS:   27575730 MSHR_MERGE:   18675446
cpu0->cpu0_L1D LOAD         ACCESS:  111547723 HIT:   83985051 MISS:   27562672 MSHR_MERGE:   18668927
cpu0->cpu0_L1D RFO          ACCESS:          0 HIT:          0 MISS:          0 MSHR_MERGE:          0
cpu0->cpu0_L1D PREFETCH     ACCESS:          0 HIT:          0 MISS:          0 MSHR_MERGE:          0
cpu0->cpu0_L1D WRITE        ACCESS:      48725 HIT:      36278 MISS:      12447 MSHR_MERGE:       6519
cpu0->cpu0_L1D TRANSLATION  ACCESS:        611 HIT:          0 MISS:        611 MSHR_MERGE:          0
cpu0->cpu0_L1D PREFETCH REQUESTED:          0 ISSUED:          0 USEFUL:          0 USELESS:          0
cpu0->cpu0_L1D AVERAGE MISS LATENCY: 8.143 cycles
cpu0->cpu0_ITLB TOTAL        ACCESS:   96143083 HIT:   96143083 MISS:          0 MSHR_MERGE:          0
cpu0->cpu0_ITLB LOAD         ACCESS:   96143083 HIT:   96143083 MISS:          0 MSHR_MERGE:          0
cpu0->cpu0_ITLB RFO          ACCESS:          0 HIT:          0 MISS:          0 MSHR_MERGE:          0
cpu0->cpu0_ITLB PREFETCH     ACCESS:          0 HIT:          0 MISS:          0 MSHR_MERGE:          0
cpu0->cpu0_ITLB WRITE        ACCESS:          0 HIT:          0 MISS:          0 MSHR_MERGE:          0
cpu0->cpu0_ITLB TRANSLATION  ACCESS:          0 HIT:          0 MISS:          0 MSHR_MERGE:          0
cpu0->cpu0_ITLB PREFETCH REQUESTED:          0 ISSUED:          0 USEFUL:          0 USELESS:          0
cpu0->cpu0_ITLB AVERAGE MISS LATENCY: - cycles
cpu0->cpu0_DTLB TOTAL        ACCESS:  111590536 HIT:  109726576 MISS:    1863960 MSHR_MERGE:    1400153
cpu0->cpu0_DTLB LOAD         ACCESS:  111590536 HIT:  109726576 MISS:    1863960 MSHR_MERGE:    1400153
cpu0->cpu0_DTLB RFO          ACCESS:          0 HIT:          0 MISS:          0 MSHR_MERGE:          0
cpu0->cpu0_DTLB PREFETCH     ACCESS:          0 HIT:          0 MISS:          0 MSHR_MERGE:          0
cpu0->cpu0_DTLB WRITE        ACCESS:          0 HIT:          0 MISS:          0 MSHR_MERGE:          0
cpu0->cpu0_DTLB TRANSLATION  ACCESS:          0 HIT:          0 MISS:          0 MSHR_MERGE:          0
cpu0->cpu0_DTLB PREFETCH REQUESTED:          0 ISSUED:          0 USEFUL:          0 USELESS:          0
cpu0->cpu0_DTLB AVERAGE MISS LATENCY: 5.286 cycles
cpu0->LLC TOTAL        ACCESS:   13592074 HIT:   13528701 MISS:      63373 MSHR_MERGE:      24016
cpu0->LLC LOAD         ACCESS:      62584 HIT:      61933 MISS:        651 MSHR_MERGE:          2
cpu0->LLC RFO          ACCESS:        659 HIT:        313 MISS:        346 MSHR_MERGE:          0
cpu0->LLC PREFETCH     ACCESS:   13527511 HIT:   13465135 MISS:      62376 MSHR_MERGE:      24014
cpu0->LLC WRITE        ACCESS:       1305 HIT:       1305 MISS:          0 MSHR_MERGE:          0
cpu0->LLC TRANSLATION  ACCESS:         15 HIT:         15 MISS:          0 MSHR_MERGE:          0
cpu0->LLC PREFETCH REQUESTED:          0 ISSUED:          0 USEFUL:          0 USELESS:          0
cpu0->LLC AVERAGE MISS LATENCY: 150.5 cycles

DRAM Statistics

Channel 0 RQ ROW_BUFFER_HIT:          0
  ROW_BUFFER_MISS:      39357
  AVG DBUS CONGESTED CYCLE: 2.976
Channel 0 WQ ROW_BUFFER_HIT:          0
  ROW_BUFFER_MISS:        168
  FULL:          0
Channel 0 REFRESHES ISSUED:      24224
