[VMEM] WARNING: physical memory size is smaller than virtual memory size.
WARNING: option --warmup_instructions is deprecated. Use --warmup-instructions instead.
WARNING: option --simulation_instructions is deprecated. Use --simulation-instructions instead.

*** ChampSim Multicore Out-of-Order Simulator ***
Warmup Instructions: 200000000
Simulation Instructions: 1000000000
Number of CPUs: 1
Page size: 4096

Initialize SIGNATURE TABLE
ST_SET: 1
ST_WAY: 256
ST_TAG_BIT: 16

Initialize PATTERN TABLE
PT_SET: 512
PT_WAY: 4
SIG_DELTA_BIT: 7
C_SIG_BIT: 4
C_DELTA_BIT: 4

Initialize PREFETCH FILTER
FILTER_SET: 1024
Off-chip DRAM Size: 16 GiB Channels: 1 Width: 64-bit Data Rate: 3205 MT/s
Heartbeat CPU 0 instructions: 10000003 cycles: 2550559 heartbeat IPC: 3.921 cumulative IPC: 3.921 (Simulation time: 00 hr 00 min 50 sec)
Heartbeat CPU 0 instructions: 20000006 cycles: 5067661 heartbeat IPC: 3.973 cumulative IPC: 3.947 (Simulation time: 00 hr 01 min 39 sec)
Heartbeat CPU 0 instructions: 30000009 cycles: 7579837 heartbeat IPC: 3.981 cumulative IPC: 3.958 (Simulation time: 00 hr 02 min 29 sec)
Heartbeat CPU 0 instructions: 40000009 cycles: 10093973 heartbeat IPC: 3.978 cumulative IPC: 3.963 (Simulation time: 00 hr 03 min 19 sec)
Heartbeat CPU 0 instructions: 50000013 cycles: 12607140 heartbeat IPC: 3.979 cumulative IPC: 3.966 (Simulation time: 00 hr 04 min 08 sec)
Heartbeat CPU 0 instructions: 60000014 cycles: 15120310 heartbeat IPC: 3.979 cumulative IPC: 3.968 (Simulation time: 00 hr 04 min 56 sec)
Heartbeat CPU 0 instructions: 70000016 cycles: 17633855 heartbeat IPC: 3.978 cumulative IPC: 3.97 (Simulation time: 00 hr 05 min 45 sec)
Heartbeat CPU 0 instructions: 80000017 cycles: 20146608 heartbeat IPC: 3.98 cumulative IPC: 3.971 (Simulation time: 00 hr 06 min 34 sec)
Heartbeat CPU 0 instructions: 90000020 cycles: 22659509 heartbeat IPC: 3.979 cumulative IPC: 3.972 (Simulation time: 00 hr 07 min 24 sec)
Heartbeat CPU 0 instructions: 100000022 cycles: 25172394 heartbeat IPC: 3.979 cumulative IPC: 3.973 (Simulation time: 00 hr 08 min 12 sec)
Heartbeat CPU 0 instructions: 110000025 cycles: 27684470 heartbeat IPC: 3.981 cumulative IPC: 3.973 (Simulation time: 00 hr 09 min 02 sec)
Heartbeat CPU 0 instructions: 120000029 cycles: 30600462 heartbeat IPC: 3.429 cumulative IPC: 3.922 (Simulation time: 00 hr 09 min 55 sec)
Heartbeat CPU 0 instructions: 130000033 cycles: 33111527 heartbeat IPC: 3.982 cumulative IPC: 3.926 (Simulation time: 00 hr 10 min 46 sec)
Heartbeat CPU 0 instructions: 140000037 cycles: 35623316 heartbeat IPC: 3.981 cumulative IPC: 3.93 (Simulation time: 00 hr 11 min 35 sec)
Heartbeat CPU 0 instructions: 150000038 cycles: 38135032 heartbeat IPC: 3.981 cumulative IPC: 3.933 (Simulation time: 00 hr 12 min 25 sec)
Heartbeat CPU 0 instructions: 160000039 cycles: 40647052 heartbeat IPC: 3.981 cumulative IPC: 3.936 (Simulation time: 00 hr 13 min 14 sec)
Heartbeat CPU 0 instructions: 170000041 cycles: 43158590 heartbeat IPC: 3.982 cumulative IPC: 3.939 (Simulation time: 00 hr 14 min 03 sec)
Heartbeat CPU 0 instructions: 180000044 cycles: 45671875 heartbeat IPC: 3.979 cumulative IPC: 3.941 (Simulation time: 00 hr 14 min 53 sec)
Heartbeat CPU 0 instructions: 190000046 cycles: 48183059 heartbeat IPC: 3.982 cumulative IPC: 3.943 (Simulation time: 00 hr 15 min 42 sec)
Warmup finished CPU 0 instructions: 200000000 cycles: 50695370 cumulative IPC: 3.945 (Simulation time: 00 hr 16 min 31 sec)
Warmup complete CPU 0 instructions: 200000000 cycles: 50695370 cumulative IPC: 3.945 (Simulation time: 00 hr 16 min 31 sec)
Heartbeat CPU 0 instructions: 200000046 cycles: 50695380 heartbeat IPC: 3.98 cumulative IPC: 4.6 (Simulation time: 00 hr 16 min 31 sec)
Heartbeat CPU 0 instructions: 210000047 cycles: 57341133 heartbeat IPC: 1.505 cumulative IPC: 1.505 (Simulation time: 00 hr 17 min 40 sec)
Heartbeat CPU 0 instructions: 220000050 cycles: 64015739 heartbeat IPC: 1.498 cumulative IPC: 1.501 (Simulation time: 00 hr 18 min 49 sec)
Heartbeat CPU 0 instructions: 230000053 cycles: 70652962 heartbeat IPC: 1.507 cumulative IPC: 1.503 (Simulation time: 00 hr 19 min 59 sec)
Heartbeat CPU 0 instructions: 240000057 cycles: 77305124 heartbeat IPC: 1.503 cumulative IPC: 1.503 (Simulation time: 00 hr 21 min 09 sec)
Heartbeat CPU 0 instructions: 250000060 cycles: 83972968 heartbeat IPC: 1.5 cumulative IPC: 1.503 (Simulation time: 00 hr 22 min 19 sec)
Heartbeat CPU 0 instructions: 260000062 cycles: 90606983 heartbeat IPC: 1.507 cumulative IPC: 1.503 (Simulation time: 00 hr 23 min 29 sec)
Heartbeat CPU 0 instructions: 270000064 cycles: 97273304 heartbeat IPC: 1.5 cumulative IPC: 1.503 (Simulation time: 00 hr 24 min 43 sec)
Heartbeat CPU 0 instructions: 280000066 cycles: 103884215 heartbeat IPC: 1.513 cumulative IPC: 1.504 (Simulation time: 00 hr 25 min 53 sec)
Heartbeat CPU 0 instructions: 290000066 cycles: 110537086 heartbeat IPC: 1.503 cumulative IPC: 1.504 (Simulation time: 00 hr 27 min 02 sec)
Heartbeat CPU 0 instructions: 300000067 cycles: 117213484 heartbeat IPC: 1.498 cumulative IPC: 1.503 (Simulation time: 00 hr 28 min 12 sec)
Heartbeat CPU 0 instructions: 310000067 cycles: 123904044 heartbeat IPC: 1.495 cumulative IPC: 1.503 (Simulation time: 00 hr 29 min 22 sec)
Heartbeat CPU 0 instructions: 320000070 cycles: 130570205 heartbeat IPC: 1.5 cumulative IPC: 1.502 (Simulation time: 00 hr 30 min 31 sec)
Heartbeat CPU 0 instructions: 330000074 cycles: 137248518 heartbeat IPC: 1.497 cumulative IPC: 1.502 (Simulation time: 00 hr 31 min 41 sec)
Heartbeat CPU 0 instructions: 340000074 cycles: 143907764 heartbeat IPC: 1.502 cumulative IPC: 1.502 (Simulation time: 00 hr 32 min 53 sec)
Heartbeat CPU 0 instructions: 350000074 cycles: 150600912 heartbeat IPC: 1.494 cumulative IPC: 1.501 (Simulation time: 00 hr 34 min 07 sec)
Heartbeat CPU 0 instructions: 360000076 cycles: 157313389 heartbeat IPC: 1.49 cumulative IPC: 1.501 (Simulation time: 00 hr 35 min 21 sec)
Heartbeat CPU 0 instructions: 370000080 cycles: 163931086 heartbeat IPC: 1.511 cumulative IPC: 1.501 (Simulation time: 00 hr 36 min 34 sec)
Heartbeat CPU 0 instructions: 380000084 cycles: 170634089 heartbeat IPC: 1.492 cumulative IPC: 1.501 (Simulation time: 00 hr 37 min 49 sec)
Heartbeat CPU 0 instructions: 390000084 cycles: 177286755 heartbeat IPC: 1.503 cumulative IPC: 1.501 (Simulation time: 00 hr 39 min 01 sec)
Heartbeat CPU 0 instructions: 400000087 cycles: 183944278 heartbeat IPC: 1.502 cumulative IPC: 1.501 (Simulation time: 00 hr 40 min 15 sec)
Heartbeat CPU 0 instructions: 410000087 cycles: 190636905 heartbeat IPC: 1.494 cumulative IPC: 1.501 (Simulation time: 00 hr 41 min 31 sec)
Heartbeat CPU 0 instructions: 420000090 cycles: 197364688 heartbeat IPC: 1.486 cumulative IPC: 1.5 (Simulation time: 00 hr 42 min 45 sec)
Heartbeat CPU 0 instructions: 430000093 cycles: 204101221 heartbeat IPC: 1.484 cumulative IPC: 1.499 (Simulation time: 00 hr 43 min 59 sec)
Heartbeat CPU 0 instructions: 440000096 cycles: 210793544 heartbeat IPC: 1.494 cumulative IPC: 1.499 (Simulation time: 00 hr 45 min 12 sec)
Heartbeat CPU 0 instructions: 450000097 cycles: 217469795 heartbeat IPC: 1.498 cumulative IPC: 1.499 (Simulation time: 00 hr 46 min 26 sec)
Heartbeat CPU 0 instructions: 460000097 cycles: 224163323 heartbeat IPC: 1.494 cumulative IPC: 1.499 (Simulation time: 00 hr 47 min 41 sec)
Heartbeat CPU 0 instructions: 470000098 cycles: 230905350 heartbeat IPC: 1.483 cumulative IPC: 1.498 (Simulation time: 00 hr 48 min 55 sec)
Heartbeat CPU 0 instructions: 480000100 cycles: 237588319 heartbeat IPC: 1.496 cumulative IPC: 1.498 (Simulation time: 00 hr 50 min 10 sec)
Heartbeat CPU 0 instructions: 490000100 cycles: 244296585 heartbeat IPC: 1.491 cumulative IPC: 1.498 (Simulation time: 00 hr 51 min 24 sec)
Heartbeat CPU 0 instructions: 500000103 cycles: 250950201 heartbeat IPC: 1.503 cumulative IPC: 1.498 (Simulation time: 00 hr 52 min 37 sec)
Heartbeat CPU 0 instructions: 510000105 cycles: 257651415 heartbeat IPC: 1.492 cumulative IPC: 1.498 (Simulation time: 00 hr 53 min 51 sec)
Heartbeat CPU 0 instructions: 520000105 cycles: 264311579 heartbeat IPC: 1.501 cumulative IPC: 1.498 (Simulation time: 00 hr 55 min 06 sec)
Heartbeat CPU 0 instructions: 530000108 cycles: 271014125 heartbeat IPC: 1.492 cumulative IPC: 1.498 (Simulation time: 00 hr 56 min 21 sec)
Heartbeat CPU 0 instructions: 540000110 cycles: 277706827 heartbeat IPC: 1.494 cumulative IPC: 1.498 (Simulation time: 00 hr 57 min 34 sec)
Heartbeat CPU 0 instructions: 550000112 cycles: 284384833 heartbeat IPC: 1.497 cumulative IPC: 1.498 (Simulation time: 00 hr 58 min 47 sec)
Heartbeat CPU 0 instructions: 560000115 cycles: 291099181 heartbeat IPC: 1.489 cumulative IPC: 1.497 (Simulation time: 00 hr 59 min 56 sec)
Heartbeat CPU 0 instructions: 570000119 cycles: 297759210 heartbeat IPC: 1.501 cumulative IPC: 1.498 (Simulation time: 01 hr 01 min 05 sec)
Heartbeat CPU 0 instructions: 580000121 cycles: 304415524 heartbeat IPC: 1.502 cumulative IPC: 1.498 (Simulation time: 01 hr 02 min 14 sec)
Heartbeat CPU 0 instructions: 590000122 cycles: 311065925 heartbeat IPC: 1.504 cumulative IPC: 1.498 (Simulation time: 01 hr 03 min 26 sec)
Heartbeat CPU 0 instructions: 600000125 cycles: 317701270 heartbeat IPC: 1.507 cumulative IPC: 1.498 (Simulation time: 01 hr 04 min 40 sec)
Heartbeat CPU 0 instructions: 610000126 cycles: 324397750 heartbeat IPC: 1.493 cumulative IPC: 1.498 (Simulation time: 01 hr 05 min 53 sec)
Heartbeat CPU 0 instructions: 620000127 cycles: 331095900 heartbeat IPC: 1.493 cumulative IPC: 1.498 (Simulation time: 01 hr 07 min 04 sec)
Heartbeat CPU 0 instructions: 630000131 cycles: 337810454 heartbeat IPC: 1.489 cumulative IPC: 1.498 (Simulation time: 01 hr 08 min 15 sec)
Heartbeat CPU 0 instructions: 640000131 cycles: 344550466 heartbeat IPC: 1.484 cumulative IPC: 1.497 (Simulation time: 01 hr 09 min 29 sec)
Heartbeat CPU 0 instructions: 650000135 cycles: 351250454 heartbeat IPC: 1.493 cumulative IPC: 1.497 (Simulation time: 01 hr 10 min 38 sec)
Heartbeat CPU 0 instructions: 660000136 cycles: 357901112 heartbeat IPC: 1.504 cumulative IPC: 1.497 (Simulation time: 01 hr 11 min 47 sec)
Heartbeat CPU 0 instructions: 670000136 cycles: 364570446 heartbeat IPC: 1.499 cumulative IPC: 1.497 (Simulation time: 01 hr 12 min 55 sec)
Heartbeat CPU 0 instructions: 680000138 cycles: 371263192 heartbeat IPC: 1.494 cumulative IPC: 1.497 (Simulation time: 01 hr 14 min 04 sec)
Heartbeat CPU 0 instructions: 690000140 cycles: 377941970 heartbeat IPC: 1.497 cumulative IPC: 1.497 (Simulation time: 01 hr 15 min 13 sec)
Heartbeat CPU 0 instructions: 700000144 cycles: 384652234 heartbeat IPC: 1.49 cumulative IPC: 1.497 (Simulation time: 01 hr 16 min 23 sec)
Heartbeat CPU 0 instructions: 710000145 cycles: 391314725 heartbeat IPC: 1.501 cumulative IPC: 1.497 (Simulation time: 01 hr 17 min 33 sec)
Heartbeat CPU 0 instructions: 720000145 cycles: 398004941 heartbeat IPC: 1.495 cumulative IPC: 1.497 (Simulation time: 01 hr 18 min 42 sec)
Heartbeat CPU 0 instructions: 730000149 cycles: 404706728 heartbeat IPC: 1.492 cumulative IPC: 1.497 (Simulation time: 01 hr 19 min 51 sec)
Heartbeat CPU 0 instructions: 740000149 cycles: 411390559 heartbeat IPC: 1.496 cumulative IPC: 1.497 (Simulation time: 01 hr 21 min 01 sec)
Heartbeat CPU 0 instructions: 750000151 cycles: 418084782 heartbeat IPC: 1.494 cumulative IPC: 1.497 (Simulation time: 01 hr 22 min 11 sec)
Heartbeat CPU 0 instructions: 760000155 cycles: 424762191 heartbeat IPC: 1.498 cumulative IPC: 1.497 (Simulation time: 01 hr 23 min 19 sec)
Heartbeat CPU 0 instructions: 770000155 cycles: 431426773 heartbeat IPC: 1.5 cumulative IPC: 1.497 (Simulation time: 01 hr 24 min 28 sec)
Heartbeat CPU 0 instructions: 780000158 cycles: 438127282 heartbeat IPC: 1.492 cumulative IPC: 1.497 (Simulation time: 01 hr 25 min 39 sec)
Heartbeat CPU 0 instructions: 790000158 cycles: 444784380 heartbeat IPC: 1.502 cumulative IPC: 1.497 (Simulation time: 01 hr 26 min 49 sec)
Heartbeat CPU 0 instructions: 800000161 cycles: 451485962 heartbeat IPC: 1.492 cumulative IPC: 1.497 (Simulation time: 01 hr 27 min 58 sec)
Heartbeat CPU 0 instructions: 810000164 cycles: 458152650 heartbeat IPC: 1.5 cumulative IPC: 1.497 (Simulation time: 01 hr 29 min 10 sec)
Heartbeat CPU 0 instructions: 820000166 cycles: 464854910 heartbeat IPC: 1.492 cumulative IPC: 1.497 (Simulation time: 01 hr 30 min 22 sec)
Heartbeat CPU 0 instructions: 830000166 cycles: 471516683 heartbeat IPC: 1.501 cumulative IPC: 1.497 (Simulation time: 01 hr 31 min 31 sec)
Heartbeat CPU 0 instructions: 840000170 cycles: 478190641 heartbeat IPC: 1.498 cumulative IPC: 1.497 (Simulation time: 01 hr 32 min 40 sec)
Heartbeat CPU 0 instructions: 850000170 cycles: 484886626 heartbeat IPC: 1.493 cumulative IPC: 1.497 (Simulation time: 01 hr 33 min 50 sec)
Heartbeat CPU 0 instructions: 860000170 cycles: 491546416 heartbeat IPC: 1.502 cumulative IPC: 1.497 (Simulation time: 01 hr 34 min 59 sec)
Heartbeat CPU 0 instructions: 870000174 cycles: 498229020 heartbeat IPC: 1.496 cumulative IPC: 1.497 (Simulation time: 01 hr 36 min 08 sec)
Heartbeat CPU 0 instructions: 880000176 cycles: 504921111 heartbeat IPC: 1.494 cumulative IPC: 1.497 (Simulation time: 01 hr 37 min 18 sec)
Heartbeat CPU 0 instructions: 890000180 cycles: 511559878 heartbeat IPC: 1.506 cumulative IPC: 1.497 (Simulation time: 01 hr 38 min 27 sec)
Heartbeat CPU 0 instructions: 900000180 cycles: 518214838 heartbeat IPC: 1.503 cumulative IPC: 1.497 (Simulation time: 01 hr 39 min 35 sec)
Heartbeat CPU 0 instructions: 910000180 cycles: 524816903 heartbeat IPC: 1.515 cumulative IPC: 1.498 (Simulation time: 01 hr 40 min 43 sec)
Heartbeat CPU 0 instructions: 920000184 cycles: 531469917 heartbeat IPC: 1.503 cumulative IPC: 1.498 (Simulation time: 01 hr 41 min 52 sec)
Heartbeat CPU 0 instructions: 930000186 cycles: 538181446 heartbeat IPC: 1.49 cumulative IPC: 1.497 (Simulation time: 01 hr 43 min 01 sec)
Heartbeat CPU 0 instructions: 940000186 cycles: 544804690 heartbeat IPC: 1.51 cumulative IPC: 1.498 (Simulation time: 01 hr 44 min 09 sec)
Heartbeat CPU 0 instructions: 950000189 cycles: 551546736 heartbeat IPC: 1.483 cumulative IPC: 1.497 (Simulation time: 01 hr 45 min 19 sec)
Heartbeat CPU 0 instructions: 960000189 cycles: 560884346 heartbeat IPC: 1.071 cumulative IPC: 1.49 (Simulation time: 01 hr 46 min 56 sec)
Heartbeat CPU 0 instructions: 970000192 cycles: 567739991 heartbeat IPC: 1.459 cumulative IPC: 1.489 (Simulation time: 01 hr 48 min 05 sec)
Heartbeat CPU 0 instructions: 980000192 cycles: 574522232 heartbeat IPC: 1.474 cumulative IPC: 1.489 (Simulation time: 01 hr 49 min 14 sec)
Heartbeat CPU 0 instructions: 990000192 cycles: 581348142 heartbeat IPC: 1.465 cumulative IPC: 1.489 (Simulation time: 01 hr 50 min 23 sec)
Heartbeat CPU 0 instructions: 1000000194 cycles: 588199477 heartbeat IPC: 1.46 cumulative IPC: 1.488 (Simulation time: 01 hr 51 min 32 sec)
Heartbeat CPU 0 instructions: 1010000194 cycles: 595034382 heartbeat IPC: 1.463 cumulative IPC: 1.488 (Simulation time: 01 hr 52 min 41 sec)
Heartbeat CPU 0 instructions: 1020000194 cycles: 601800224 heartbeat IPC: 1.478 cumulative IPC: 1.488 (Simulation time: 01 hr 53 min 50 sec)
Heartbeat CPU 0 instructions: 1030000195 cycles: 608580636 heartbeat IPC: 1.475 cumulative IPC: 1.488 (Simulation time: 01 hr 54 min 59 sec)
Heartbeat CPU 0 instructions: 1040000198 cycles: 615339007 heartbeat IPC: 1.48 cumulative IPC: 1.488 (Simulation time: 01 hr 56 min 08 sec)
Heartbeat CPU 0 instructions: 1050000201 cycles: 622133013 heartbeat IPC: 1.472 cumulative IPC: 1.487 (Simulation time: 01 hr 57 min 17 sec)
Heartbeat CPU 0 instructions: 1060000202 cycles: 628923067 heartbeat IPC: 1.473 cumulative IPC: 1.487 (Simulation time: 01 hr 58 min 26 sec)
Heartbeat CPU 0 instructions: 1070000202 cycles: 635684643 heartbeat IPC: 1.479 cumulative IPC: 1.487 (Simulation time: 01 hr 59 min 35 sec)
Heartbeat CPU 0 instructions: 1080000202 cycles: 642486641 heartbeat IPC: 1.47 cumulative IPC: 1.487 (Simulation time: 02 hr 00 min 44 sec)
Heartbeat CPU 0 instructions: 1090000204 cycles: 649265280 heartbeat IPC: 1.475 cumulative IPC: 1.487 (Simulation time: 02 hr 01 min 56 sec)
Heartbeat CPU 0 instructions: 1100000204 cycles: 656058234 heartbeat IPC: 1.472 cumulative IPC: 1.487 (Simulation time: 02 hr 03 min 08 sec)
Heartbeat CPU 0 instructions: 1110000204 cycles: 662870186 heartbeat IPC: 1.468 cumulative IPC: 1.487 (Simulation time: 02 hr 04 min 18 sec)
Heartbeat CPU 0 instructions: 1120000206 cycles: 669639540 heartbeat IPC: 1.477 cumulative IPC: 1.486 (Simulation time: 02 hr 05 min 27 sec)
Heartbeat CPU 0 instructions: 1130000206 cycles: 676424378 heartbeat IPC: 1.474 cumulative IPC: 1.486 (Simulation time: 02 hr 06 min 37 sec)
Heartbeat CPU 0 instructions: 1140000208 cycles: 683203666 heartbeat IPC: 1.475 cumulative IPC: 1.486 (Simulation time: 02 hr 07 min 46 sec)
Heartbeat CPU 0 instructions: 1150000208 cycles: 689957696 heartbeat IPC: 1.481 cumulative IPC: 1.486 (Simulation time: 02 hr 08 min 55 sec)
Heartbeat CPU 0 instructions: 1160000209 cycles: 696770458 heartbeat IPC: 1.468 cumulative IPC: 1.486 (Simulation time: 02 hr 10 min 04 sec)
Heartbeat CPU 0 instructions: 1170000211 cycles: 703514194 heartbeat IPC: 1.483 cumulative IPC: 1.486 (Simulation time: 02 hr 11 min 13 sec)
Heartbeat CPU 0 instructions: 1180000213 cycles: 710316691 heartbeat IPC: 1.47 cumulative IPC: 1.486 (Simulation time: 02 hr 12 min 22 sec)
Heartbeat CPU 0 instructions: 1190000213 cycles: 717134578 heartbeat IPC: 1.467 cumulative IPC: 1.486 (Simulation time: 02 hr 13 min 31 sec)
Simulation finished CPU 0 instructions: 1000000003 cycles: 673232928 cumulative IPC: 1.485 (Simulation time: 02 hr 14 min 41 sec)
Simulation complete CPU 0 instructions: 1000000003 cycles: 673232928 cumulative IPC: 1.485 (Simulation time: 02 hr 14 min 41 sec)

ChampSim completed all CPUs

=== Simulation ===
CPU 0 runs /home/grads/b/bhavishya_k_s/ecen676/ChampSim/dpc3_traces/641.leela_s-800B.champsimtrace.xz

Region of Interest Statistics

CPU 0 cumulative IPC: 1.485 instructions: 1000000003 cycles: 673232928
CPU 0 Branch Prediction Accuracy: 88.23% MPKI: 19.25 Average ROB Occupancy at Mispredict: 23.42
Branch type MPKI
BRANCH_DIRECT_JUMP: 0.07426
BRANCH_INDIRECT: 0.000567
BRANCH_CONDITIONAL: 19.14
BRANCH_DIRECT_CALL: 3e-06
BRANCH_INDIRECT_CALL: 8e-06
BRANCH_RETURN: 0.02639

cpu0->cpu0_STLB TOTAL        ACCESS:     402095 HIT:     401239 MISS:        856 MSHR_MERGE:          0
cpu0->cpu0_STLB LOAD         ACCESS:     402095 HIT:     401239 MISS:        856 MSHR_MERGE:          0
cpu0->cpu0_STLB RFO          ACCESS:          0 HIT:          0 MISS:          0 MSHR_MERGE:          0
cpu0->cpu0_STLB PREFETCH     ACCESS:          0 HIT:          0 MISS:          0 MSHR_MERGE:          0
cpu0->cpu0_STLB WRITE        ACCESS:          0 HIT:          0 MISS:          0 MSHR_MERGE:          0
cpu0->cpu0_STLB TRANSLATION  ACCESS:          0 HIT:          0 MISS:          0 MSHR_MERGE:          0
cpu0->cpu0_STLB PREFETCH REQUESTED:          0 ISSUED:          0 USEFUL:          0 USELESS:          0
cpu0->cpu0_STLB AVERAGE MISS LATENCY: 160 cycles
cpu0->cpu0_L2C TOTAL        ACCESS:    4652384 HIT:    4109059 MISS:     543325 MSHR_MERGE:      15352
cpu0->cpu0_L2C LOAD         ACCESS:    2049847 HIT:    2017661 MISS:      32186 MSHR_MERGE:       2400
cpu0->cpu0_L2C RFO          ACCESS:     248053 HIT:     211854 MISS:      36199 MSHR_MERGE:          0
cpu0->cpu0_L2C PREFETCH     ACCESS:    1910479 HIT:    1435833 MISS:     474646 MSHR_MERGE:      12952
cpu0->cpu0_L2C WRITE        ACCESS:     443431 HIT:     443419 MISS:         12 MSHR_MERGE:          0
cpu0->cpu0_L2C TRANSLATION  ACCESS:        574 HIT:        292 MISS:        282 MSHR_MERGE:          0
cpu0->cpu0_L2C PREFETCH REQUESTED:    1934550 ISSUED:    1910479 USEFUL:      20583 USELESS:        124
cpu0->cpu0_L2C AVERAGE MISS LATENCY: 194 cycles
cpu0->cpu0_L1I TOTAL        ACCESS:  100136105 HIT:  100047742 MISS:      88363 MSHR_MERGE:      31933
cpu0->cpu0_L1I LOAD         ACCESS:  100136105 HIT:  100047742 MISS:      88363 MSHR_MERGE:      31933
cpu0->cpu0_L1I RFO          ACCESS:          0 HIT:          0 MISS:          0 MSHR_MERGE:          0
cpu0->cpu0_L1I PREFETCH     ACCESS:          0 HIT:          0 MISS:          0 MSHR_MERGE:          0
cpu0->cpu0_L1I WRITE        ACCESS:          0 HIT:          0 MISS:          0 MSHR_MERGE:          0
cpu0->cpu0_L1I TRANSLATION  ACCESS:          0 HIT:          0 MISS:          0 MSHR_MERGE:          0
cpu0->cpu0_L1I PREFETCH REQUESTED:          0 ISSUED:          0 USEFUL:          0 USELESS:          0
cpu0->cpu0_L1I AVERAGE MISS LATENCY: 9.754 cycles
cpu0->cpu0_L1D TOTAL        ACCESS:  296445223 HIT:  293232853 MISS:    3212370 MSHR_MERGE:     970323
cpu0->cpu0_L1D LOAD         ACCESS:  182520789 HIT:  180074547 MISS:    2446242 MSHR_MERGE:     452825
cpu0->cpu0_L1D RFO          ACCESS:          0 HIT:          0 MISS:          0 MSHR_MERGE:          0
cpu0->cpu0_L1D PREFETCH     ACCESS:          0 HIT:          0 MISS:          0 MSHR_MERGE:          0
cpu0->cpu0_L1D WRITE        ACCESS:  113923578 HIT:  113158024 MISS:     765554 MSHR_MERGE:     517498
cpu0->cpu0_L1D TRANSLATION  ACCESS:        856 HIT:        282 MISS:        574 MSHR_MERGE:          0
cpu0->cpu0_L1D PREFETCH REQUESTED:          0 ISSUED:          0 USEFUL:          0 USELESS:          0
cpu0->cpu0_L1D AVERAGE MISS LATENCY: 13.92 cycles
cpu0->cpu0_ITLB TOTAL        ACCESS:   88072280 HIT:   88072216 MISS:         64 MSHR_MERGE:         33
cpu0->cpu0_ITLB LOAD         ACCESS:   88072280 HIT:   88072216 MISS:         64 MSHR_MERGE:         33
cpu0->cpu0_ITLB RFO          ACCESS:          0 HIT:          0 MISS:          0 MSHR_MERGE:          0
cpu0->cpu0_ITLB PREFETCH     ACCESS:          0 HIT:          0 MISS:          0 MSHR_MERGE:          0
cpu0->cpu0_ITLB WRITE        ACCESS:          0 HIT:          0 MISS:          0 MSHR_MERGE:          0
cpu0->cpu0_ITLB TRANSLATION  ACCESS:          0 HIT:          0 MISS:          0 MSHR_MERGE:          0
cpu0->cpu0_ITLB PREFETCH REQUESTED:          0 ISSUED:          0 USEFUL:          0 USELESS:          0
cpu0->cpu0_ITLB AVERAGE MISS LATENCY: 152.7 cycles
cpu0->cpu0_DTLB TOTAL        ACCESS:  278584954 HIT:  278122421 MISS:     462533 MSHR_MERGE:      60469
cpu0->cpu0_DTLB LOAD         ACCESS:  278584954 HIT:  278122421 MISS:     462533 MSHR_MERGE:      60469
cpu0->cpu0_DTLB RFO          ACCESS:          0 HIT:          0 MISS:          0 MSHR_MERGE:          0
cpu0->cpu0_DTLB PREFETCH     ACCESS:          0 HIT:          0 MISS:          0 MSHR_MERGE:          0
cpu0->cpu0_DTLB WRITE        ACCESS:          0 HIT:          0 MISS:          0 MSHR_MERGE:          0
cpu0->cpu0_DTLB TRANSLATION  ACCESS:          0 HIT:          0 MISS:          0 MSHR_MERGE:          0
cpu0->cpu0_DTLB PREFETCH REQUESTED:          0 ISSUED:          0 USEFUL:          0 USELESS:          0
cpu0->cpu0_DTLB AVERAGE MISS LATENCY: 5.332 cycles
cpu0->LLC TOTAL        ACCESS:     565938 HIT:     366157 MISS:     199781 MSHR_MERGE:     129475
cpu0->LLC LOAD         ACCESS:      29786 HIT:      21474 MISS:       8312 MSHR_MERGE:       1823
cpu0->LLC RFO          ACCESS:      36199 HIT:       4803 MISS:      31396 MSHR_MERGE:          5
cpu0->LLC PREFETCH     ACCESS:     459892 HIT:     300123 MISS:     159769 MSHR_MERGE:     127647
cpu0->LLC WRITE        ACCESS:      39779 HIT:      39727 MISS:         52 MSHR_MERGE:          0
cpu0->LLC TRANSLATION  ACCESS:        282 HIT:         30 MISS:        252 MSHR_MERGE:          0
cpu0->LLC PREFETCH REQUESTED:          0 ISSUED:          0 USEFUL:          0 USELESS:          0
cpu0->LLC AVERAGE MISS LATENCY: 297.7 cycles

DRAM Statistics

Channel 0 RQ ROW_BUFFER_HIT:       2593
  ROW_BUFFER_MISS:      67492
  AVG DBUS CONGESTED CYCLE: 7.063
Channel 0 WQ ROW_BUFFER_HIT:       4613
  ROW_BUFFER_MISS:      31993
  FULL:          0
Channel 0 REFRESHES ISSUED:      56103
