[VMEM] WARNING: physical memory size is smaller than virtual memory size.
WARNING: option --warmup_instructions is deprecated. Use --warmup-instructions instead.
WARNING: option --simulation_instructions is deprecated. Use --simulation-instructions instead.

*** ChampSim Multicore Out-of-Order Simulator ***
Warmup Instructions: 200000000
Simulation Instructions: 1000000000
Number of CPUs: 1
Page size: 4096

Initialize SIGNATURE TABLE
ST_SET: 1
ST_WAY: 256
ST_TAG_BIT: 16

Initialize PATTERN TABLE
PT_SET: 512
PT_WAY: 4
SIG_DELTA_BIT: 7
C_SIG_BIT: 4
C_DELTA_BIT: 4

Initialize PREFETCH FILTER
FILTER_SET: 1024
Off-chip DRAM Size: 16 GiB Channels: 1 Width: 64-bit Data Rate: 3205 MT/s
Heartbeat CPU 0 instructions: 10000001 cycles: 2514621 heartbeat IPC: 3.977 cumulative IPC: 3.977 (Simulation time: 00 hr 00 min 45 sec)
Heartbeat CPU 0 instructions: 20000002 cycles: 5030305 heartbeat IPC: 3.975 cumulative IPC: 3.976 (Simulation time: 00 hr 01 min 31 sec)
Heartbeat CPU 0 instructions: 30000004 cycles: 7537035 heartbeat IPC: 3.989 cumulative IPC: 3.98 (Simulation time: 00 hr 02 min 17 sec)
Heartbeat CPU 0 instructions: 40000004 cycles: 10051624 heartbeat IPC: 3.977 cumulative IPC: 3.979 (Simulation time: 00 hr 03 min 04 sec)
Heartbeat CPU 0 instructions: 50000004 cycles: 12576685 heartbeat IPC: 3.96 cumulative IPC: 3.976 (Simulation time: 00 hr 03 min 50 sec)
Heartbeat CPU 0 instructions: 60000004 cycles: 15082775 heartbeat IPC: 3.99 cumulative IPC: 3.978 (Simulation time: 00 hr 04 min 36 sec)
Heartbeat CPU 0 instructions: 70000007 cycles: 17586983 heartbeat IPC: 3.993 cumulative IPC: 3.98 (Simulation time: 00 hr 05 min 21 sec)
Heartbeat CPU 0 instructions: 80000007 cycles: 20090631 heartbeat IPC: 3.994 cumulative IPC: 3.982 (Simulation time: 00 hr 06 min 06 sec)
Heartbeat CPU 0 instructions: 90000010 cycles: 22598791 heartbeat IPC: 3.987 cumulative IPC: 3.983 (Simulation time: 00 hr 06 min 52 sec)
Heartbeat CPU 0 instructions: 100000012 cycles: 25104453 heartbeat IPC: 3.991 cumulative IPC: 3.983 (Simulation time: 00 hr 07 min 37 sec)
Heartbeat CPU 0 instructions: 110000013 cycles: 27624404 heartbeat IPC: 3.968 cumulative IPC: 3.982 (Simulation time: 00 hr 08 min 23 sec)
Heartbeat CPU 0 instructions: 120000016 cycles: 30132763 heartbeat IPC: 3.987 cumulative IPC: 3.982 (Simulation time: 00 hr 09 min 08 sec)
Heartbeat CPU 0 instructions: 130000018 cycles: 32635598 heartbeat IPC: 3.995 cumulative IPC: 3.983 (Simulation time: 00 hr 09 min 53 sec)
Heartbeat CPU 0 instructions: 140000018 cycles: 35152596 heartbeat IPC: 3.973 cumulative IPC: 3.983 (Simulation time: 00 hr 10 min 38 sec)
Heartbeat CPU 0 instructions: 150000018 cycles: 37669584 heartbeat IPC: 3.973 cumulative IPC: 3.982 (Simulation time: 00 hr 11 min 23 sec)
Heartbeat CPU 0 instructions: 160000019 cycles: 40176792 heartbeat IPC: 3.989 cumulative IPC: 3.982 (Simulation time: 00 hr 12 min 08 sec)
Heartbeat CPU 0 instructions: 170000020 cycles: 42689536 heartbeat IPC: 3.98 cumulative IPC: 3.982 (Simulation time: 00 hr 12 min 53 sec)
Heartbeat CPU 0 instructions: 180000020 cycles: 45212150 heartbeat IPC: 3.964 cumulative IPC: 3.981 (Simulation time: 00 hr 13 min 39 sec)
Heartbeat CPU 0 instructions: 190000020 cycles: 47729160 heartbeat IPC: 3.973 cumulative IPC: 3.981 (Simulation time: 00 hr 14 min 24 sec)
Warmup finished CPU 0 instructions: 200000003 cycles: 50240657 cumulative IPC: 3.981 (Simulation time: 00 hr 15 min 11 sec)
Warmup complete CPU 0 instructions: 200000003 cycles: 50240657 cumulative IPC: 3.981 (Simulation time: 00 hr 15 min 11 sec)
Heartbeat CPU 0 instructions: 200000023 cycles: 50240662 heartbeat IPC: 3.982 cumulative IPC: 4 (Simulation time: 00 hr 15 min 11 sec)
Heartbeat CPU 0 instructions: 210000024 cycles: 54316680 heartbeat IPC: 2.453 cumulative IPC: 2.453 (Simulation time: 00 hr 16 min 04 sec)
Heartbeat CPU 0 instructions: 220000024 cycles: 58813475 heartbeat IPC: 2.224 cumulative IPC: 2.333 (Simulation time: 00 hr 17 min 00 sec)
Heartbeat CPU 0 instructions: 230000026 cycles: 62843883 heartbeat IPC: 2.481 cumulative IPC: 2.38 (Simulation time: 00 hr 17 min 53 sec)
Heartbeat CPU 0 instructions: 240000026 cycles: 67298797 heartbeat IPC: 2.245 cumulative IPC: 2.345 (Simulation time: 00 hr 18 min 49 sec)
Heartbeat CPU 0 instructions: 250000029 cycles: 71697108 heartbeat IPC: 2.274 cumulative IPC: 2.33 (Simulation time: 00 hr 19 min 44 sec)
Heartbeat CPU 0 instructions: 260000032 cycles: 75856402 heartbeat IPC: 2.404 cumulative IPC: 2.342 (Simulation time: 00 hr 20 min 38 sec)
Heartbeat CPU 0 instructions: 270000032 cycles: 80252269 heartbeat IPC: 2.275 cumulative IPC: 2.332 (Simulation time: 00 hr 21 min 34 sec)
Heartbeat CPU 0 instructions: 280000035 cycles: 84494577 heartbeat IPC: 2.357 cumulative IPC: 2.336 (Simulation time: 00 hr 22 min 28 sec)
Heartbeat CPU 0 instructions: 290000036 cycles: 88511202 heartbeat IPC: 2.49 cumulative IPC: 2.352 (Simulation time: 00 hr 23 min 21 sec)
Heartbeat CPU 0 instructions: 300000040 cycles: 92670095 heartbeat IPC: 2.404 cumulative IPC: 2.357 (Simulation time: 00 hr 24 min 15 sec)
Heartbeat CPU 0 instructions: 310000043 cycles: 96638397 heartbeat IPC: 2.52 cumulative IPC: 2.371 (Simulation time: 00 hr 25 min 07 sec)
Heartbeat CPU 0 instructions: 320000046 cycles: 100606277 heartbeat IPC: 2.52 cumulative IPC: 2.383 (Simulation time: 00 hr 25 min 59 sec)
Heartbeat CPU 0 instructions: 330000049 cycles: 104574902 heartbeat IPC: 2.52 cumulative IPC: 2.393 (Simulation time: 00 hr 26 min 52 sec)
Heartbeat CPU 0 instructions: 340000049 cycles: 108732695 heartbeat IPC: 2.405 cumulative IPC: 2.393 (Simulation time: 00 hr 27 min 46 sec)
Heartbeat CPU 0 instructions: 350000051 cycles: 112761043 heartbeat IPC: 2.482 cumulative IPC: 2.399 (Simulation time: 00 hr 28 min 39 sec)
Heartbeat CPU 0 instructions: 360000052 cycles: 116823783 heartbeat IPC: 2.461 cumulative IPC: 2.403 (Simulation time: 00 hr 29 min 32 sec)
Heartbeat CPU 0 instructions: 370000055 cycles: 120928297 heartbeat IPC: 2.436 cumulative IPC: 2.405 (Simulation time: 00 hr 30 min 25 sec)
Heartbeat CPU 0 instructions: 380000057 cycles: 126152520 heartbeat IPC: 1.914 cumulative IPC: 2.371 (Simulation time: 00 hr 31 min 26 sec)
Heartbeat CPU 0 instructions: 390000059 cycles: 130616329 heartbeat IPC: 2.24 cumulative IPC: 2.364 (Simulation time: 00 hr 32 min 22 sec)
Heartbeat CPU 0 instructions: 400000062 cycles: 134729165 heartbeat IPC: 2.431 cumulative IPC: 2.367 (Simulation time: 00 hr 33 min 16 sec)
Heartbeat CPU 0 instructions: 410000064 cycles: 138792819 heartbeat IPC: 2.461 cumulative IPC: 2.371 (Simulation time: 00 hr 34 min 09 sec)
Heartbeat CPU 0 instructions: 420000066 cycles: 142808300 heartbeat IPC: 2.49 cumulative IPC: 2.377 (Simulation time: 00 hr 35 min 02 sec)
Heartbeat CPU 0 instructions: 430000069 cycles: 147725026 heartbeat IPC: 2.034 cumulative IPC: 2.359 (Simulation time: 00 hr 36 min 01 sec)
Heartbeat CPU 0 instructions: 440000072 cycles: 152312887 heartbeat IPC: 2.18 cumulative IPC: 2.351 (Simulation time: 00 hr 36 min 57 sec)
Heartbeat CPU 0 instructions: 450000075 cycles: 158345174 heartbeat IPC: 1.658 cumulative IPC: 2.313 (Simulation time: 00 hr 38 min 04 sec)
Heartbeat CPU 0 instructions: 460000079 cycles: 162418017 heartbeat IPC: 2.455 cumulative IPC: 2.318 (Simulation time: 00 hr 38 min 58 sec)
Heartbeat CPU 0 instructions: 470000080 cycles: 166530340 heartbeat IPC: 2.432 cumulative IPC: 2.322 (Simulation time: 00 hr 39 min 51 sec)
Heartbeat CPU 0 instructions: 480000080 cycles: 170745813 heartbeat IPC: 2.372 cumulative IPC: 2.324 (Simulation time: 00 hr 40 min 45 sec)
Heartbeat CPU 0 instructions: 490000081 cycles: 181391584 heartbeat IPC: 0.9393 cumulative IPC: 2.211 (Simulation time: 00 hr 43 min 02 sec)
Heartbeat CPU 0 instructions: 500000084 cycles: 188376099 heartbeat IPC: 1.432 cumulative IPC: 2.172 (Simulation time: 00 hr 44 min 16 sec)
Heartbeat CPU 0 instructions: 510000086 cycles: 195355446 heartbeat IPC: 1.433 cumulative IPC: 2.136 (Simulation time: 00 hr 45 min 30 sec)
Heartbeat CPU 0 instructions: 520000088 cycles: 202323291 heartbeat IPC: 1.435 cumulative IPC: 2.104 (Simulation time: 00 hr 46 min 43 sec)
Heartbeat CPU 0 instructions: 530000088 cycles: 209298943 heartbeat IPC: 1.434 cumulative IPC: 2.075 (Simulation time: 00 hr 47 min 57 sec)
Heartbeat CPU 0 instructions: 540000092 cycles: 216268550 heartbeat IPC: 1.435 cumulative IPC: 2.048 (Simulation time: 00 hr 49 min 10 sec)
Heartbeat CPU 0 instructions: 550000094 cycles: 223238473 heartbeat IPC: 1.435 cumulative IPC: 2.023 (Simulation time: 00 hr 50 min 24 sec)
Heartbeat CPU 0 instructions: 560000094 cycles: 231018487 heartbeat IPC: 1.285 cumulative IPC: 1.991 (Simulation time: 00 hr 51 min 47 sec)
Heartbeat CPU 0 instructions: 570000094 cycles: 241776535 heartbeat IPC: 0.9295 cumulative IPC: 1.932 (Simulation time: 00 hr 54 min 01 sec)
Heartbeat CPU 0 instructions: 580000094 cycles: 248754218 heartbeat IPC: 1.433 cumulative IPC: 1.914 (Simulation time: 00 hr 55 min 14 sec)
Heartbeat CPU 0 instructions: 590000094 cycles: 255728272 heartbeat IPC: 1.434 cumulative IPC: 1.898 (Simulation time: 00 hr 56 min 28 sec)
Heartbeat CPU 0 instructions: 600000096 cycles: 262694997 heartbeat IPC: 1.435 cumulative IPC: 1.883 (Simulation time: 00 hr 57 min 42 sec)
Heartbeat CPU 0 instructions: 610000098 cycles: 269675472 heartbeat IPC: 1.433 cumulative IPC: 1.868 (Simulation time: 00 hr 58 min 55 sec)
Heartbeat CPU 0 instructions: 620000098 cycles: 276638045 heartbeat IPC: 1.436 cumulative IPC: 1.855 (Simulation time: 01 hr 00 min 09 sec)
Heartbeat CPU 0 instructions: 630000102 cycles: 283619563 heartbeat IPC: 1.432 cumulative IPC: 1.842 (Simulation time: 01 hr 01 min 23 sec)
Heartbeat CPU 0 instructions: 640000104 cycles: 295024857 heartbeat IPC: 0.8768 cumulative IPC: 1.798 (Simulation time: 01 hr 03 min 45 sec)
Heartbeat CPU 0 instructions: 650000106 cycles: 302000209 heartbeat IPC: 1.434 cumulative IPC: 1.787 (Simulation time: 01 hr 04 min 59 sec)
Heartbeat CPU 0 instructions: 660000106 cycles: 308980892 heartbeat IPC: 1.433 cumulative IPC: 1.778 (Simulation time: 01 hr 06 min 12 sec)
Heartbeat CPU 0 instructions: 670000108 cycles: 315944786 heartbeat IPC: 1.436 cumulative IPC: 1.769 (Simulation time: 01 hr 07 min 25 sec)
Heartbeat CPU 0 instructions: 680000110 cycles: 322921836 heartbeat IPC: 1.433 cumulative IPC: 1.76 (Simulation time: 01 hr 08 min 40 sec)
Heartbeat CPU 0 instructions: 690000110 cycles: 329890538 heartbeat IPC: 1.435 cumulative IPC: 1.752 (Simulation time: 01 hr 09 min 54 sec)
Heartbeat CPU 0 instructions: 700000110 cycles: 336863556 heartbeat IPC: 1.434 cumulative IPC: 1.744 (Simulation time: 01 hr 11 min 07 sec)
Heartbeat CPU 0 instructions: 710000110 cycles: 347620815 heartbeat IPC: 0.9296 cumulative IPC: 1.715 (Simulation time: 01 hr 13 min 16 sec)
Heartbeat CPU 0 instructions: 720000110 cycles: 355324877 heartbeat IPC: 1.298 cumulative IPC: 1.704 (Simulation time: 01 hr 14 min 43 sec)
Heartbeat CPU 0 instructions: 730000114 cycles: 362302508 heartbeat IPC: 1.433 cumulative IPC: 1.698 (Simulation time: 01 hr 15 min 56 sec)
Heartbeat CPU 0 instructions: 740000116 cycles: 369270905 heartbeat IPC: 1.435 cumulative IPC: 1.693 (Simulation time: 01 hr 17 min 10 sec)
Heartbeat CPU 0 instructions: 750000116 cycles: 376244171 heartbeat IPC: 1.434 cumulative IPC: 1.687 (Simulation time: 01 hr 18 min 23 sec)
Heartbeat CPU 0 instructions: 760000116 cycles: 383221347 heartbeat IPC: 1.433 cumulative IPC: 1.682 (Simulation time: 01 hr 19 min 37 sec)
Heartbeat CPU 0 instructions: 770000116 cycles: 390185561 heartbeat IPC: 1.436 cumulative IPC: 1.677 (Simulation time: 01 hr 20 min 50 sec)
Heartbeat CPU 0 instructions: 780000118 cycles: 397169910 heartbeat IPC: 1.432 cumulative IPC: 1.672 (Simulation time: 01 hr 22 min 03 sec)
Heartbeat CPU 0 instructions: 790000118 cycles: 408633969 heartbeat IPC: 0.8723 cumulative IPC: 1.646 (Simulation time: 01 hr 24 min 25 sec)
Heartbeat CPU 0 instructions: 800000118 cycles: 415611698 heartbeat IPC: 1.433 cumulative IPC: 1.642 (Simulation time: 01 hr 25 min 39 sec)
Heartbeat CPU 0 instructions: 810000122 cycles: 422587398 heartbeat IPC: 1.434 cumulative IPC: 1.638 (Simulation time: 01 hr 26 min 52 sec)
Heartbeat CPU 0 instructions: 820000124 cycles: 429552604 heartbeat IPC: 1.436 cumulative IPC: 1.635 (Simulation time: 01 hr 28 min 06 sec)
Heartbeat CPU 0 instructions: 830000126 cycles: 436533975 heartbeat IPC: 1.432 cumulative IPC: 1.631 (Simulation time: 01 hr 29 min 19 sec)
Heartbeat CPU 0 instructions: 840000128 cycles: 443501003 heartbeat IPC: 1.435 cumulative IPC: 1.627 (Simulation time: 01 hr 30 min 33 sec)
Heartbeat CPU 0 instructions: 850000128 cycles: 450478878 heartbeat IPC: 1.433 cumulative IPC: 1.624 (Simulation time: 01 hr 31 min 46 sec)
Heartbeat CPU 0 instructions: 860000129 cycles: 461986629 heartbeat IPC: 0.869 cumulative IPC: 1.603 (Simulation time: 01 hr 34 min 09 sec)
Heartbeat CPU 0 instructions: 870000131 cycles: 468959571 heartbeat IPC: 1.434 cumulative IPC: 1.6 (Simulation time: 01 hr 35 min 22 sec)
Heartbeat CPU 0 instructions: 880000131 cycles: 475941469 heartbeat IPC: 1.432 cumulative IPC: 1.597 (Simulation time: 01 hr 36 min 36 sec)
Heartbeat CPU 0 instructions: 890000133 cycles: 482906391 heartbeat IPC: 1.436 cumulative IPC: 1.595 (Simulation time: 01 hr 37 min 49 sec)
Heartbeat CPU 0 instructions: 900000135 cycles: 489881432 heartbeat IPC: 1.434 cumulative IPC: 1.592 (Simulation time: 01 hr 39 min 03 sec)
Heartbeat CPU 0 instructions: 910000139 cycles: 496853369 heartbeat IPC: 1.434 cumulative IPC: 1.59 (Simulation time: 01 hr 40 min 17 sec)
Heartbeat CPU 0 instructions: 920000140 cycles: 503822519 heartbeat IPC: 1.435 cumulative IPC: 1.587 (Simulation time: 01 hr 41 min 31 sec)
Heartbeat CPU 0 instructions: 930000142 cycles: 510803711 heartbeat IPC: 1.432 cumulative IPC: 1.585 (Simulation time: 01 hr 42 min 45 sec)
Heartbeat CPU 0 instructions: 940000142 cycles: 522235902 heartbeat IPC: 0.8747 cumulative IPC: 1.568 (Simulation time: 01 hr 45 min 10 sec)
Heartbeat CPU 0 instructions: 950000145 cycles: 529214451 heartbeat IPC: 1.433 cumulative IPC: 1.566 (Simulation time: 01 hr 46 min 24 sec)
Heartbeat CPU 0 instructions: 960000148 cycles: 536186554 heartbeat IPC: 1.434 cumulative IPC: 1.564 (Simulation time: 01 hr 47 min 39 sec)
Heartbeat CPU 0 instructions: 970000150 cycles: 543153409 heartbeat IPC: 1.435 cumulative IPC: 1.562 (Simulation time: 01 hr 48 min 53 sec)
Heartbeat CPU 0 instructions: 980000152 cycles: 550135590 heartbeat IPC: 1.432 cumulative IPC: 1.56 (Simulation time: 01 hr 50 min 07 sec)
Heartbeat CPU 0 instructions: 990000152 cycles: 557099884 heartbeat IPC: 1.436 cumulative IPC: 1.559 (Simulation time: 01 hr 51 min 21 sec)
Heartbeat CPU 0 instructions: 1000000153 cycles: 564078142 heartbeat IPC: 1.433 cumulative IPC: 1.557 (Simulation time: 01 hr 52 min 35 sec)
Heartbeat CPU 0 instructions: 1010000156 cycles: 575547048 heartbeat IPC: 0.8719 cumulative IPC: 1.542 (Simulation time: 01 hr 54 min 58 sec)
Heartbeat CPU 0 instructions: 1020000158 cycles: 582520587 heartbeat IPC: 1.434 cumulative IPC: 1.541 (Simulation time: 01 hr 56 min 13 sec)
Heartbeat CPU 0 instructions: 1030000160 cycles: 589502220 heartbeat IPC: 1.432 cumulative IPC: 1.539 (Simulation time: 01 hr 57 min 27 sec)
Heartbeat CPU 0 instructions: 1040000164 cycles: 596467589 heartbeat IPC: 1.436 cumulative IPC: 1.538 (Simulation time: 01 hr 58 min 41 sec)
Heartbeat CPU 0 instructions: 1050000164 cycles: 603444903 heartbeat IPC: 1.433 cumulative IPC: 1.537 (Simulation time: 01 hr 59 min 55 sec)
Heartbeat CPU 0 instructions: 1060000165 cycles: 610415209 heartbeat IPC: 1.435 cumulative IPC: 1.535 (Simulation time: 02 hr 01 min 10 sec)
Heartbeat CPU 0 instructions: 1070000167 cycles: 617387712 heartbeat IPC: 1.434 cumulative IPC: 1.534 (Simulation time: 02 hr 02 min 24 sec)
Heartbeat CPU 0 instructions: 1080000167 cycles: 626905369 heartbeat IPC: 1.051 cumulative IPC: 1.526 (Simulation time: 02 hr 04 min 11 sec)
Heartbeat CPU 0 instructions: 1090000167 cycles: 635878598 heartbeat IPC: 1.114 cumulative IPC: 1.52 (Simulation time: 02 hr 06 min 01 sec)
Heartbeat CPU 0 instructions: 1100000167 cycles: 642857527 heartbeat IPC: 1.433 cumulative IPC: 1.519 (Simulation time: 02 hr 07 min 14 sec)
Heartbeat CPU 0 instructions: 1110000168 cycles: 649830239 heartbeat IPC: 1.434 cumulative IPC: 1.518 (Simulation time: 02 hr 08 min 28 sec)
Heartbeat CPU 0 instructions: 1120000172 cycles: 656799562 heartbeat IPC: 1.435 cumulative IPC: 1.517 (Simulation time: 02 hr 09 min 41 sec)
Heartbeat CPU 0 instructions: 1130000172 cycles: 663779713 heartbeat IPC: 1.433 cumulative IPC: 1.516 (Simulation time: 02 hr 10 min 55 sec)
Heartbeat CPU 0 instructions: 1140000176 cycles: 670745978 heartbeat IPC: 1.435 cumulative IPC: 1.515 (Simulation time: 02 hr 12 min 09 sec)
Heartbeat CPU 0 instructions: 1150000176 cycles: 677728388 heartbeat IPC: 1.432 cumulative IPC: 1.514 (Simulation time: 02 hr 13 min 22 sec)
Heartbeat CPU 0 instructions: 1160000177 cycles: 689278814 heartbeat IPC: 0.8658 cumulative IPC: 1.502 (Simulation time: 02 hr 15 min 46 sec)
Heartbeat CPU 0 instructions: 1170000177 cycles: 696255652 heartbeat IPC: 1.433 cumulative IPC: 1.502 (Simulation time: 02 hr 16 min 59 sec)
Heartbeat CPU 0 instructions: 1180000177 cycles: 703234140 heartbeat IPC: 1.433 cumulative IPC: 1.501 (Simulation time: 02 hr 18 min 12 sec)
Heartbeat CPU 0 instructions: 1190000180 cycles: 710196730 heartbeat IPC: 1.436 cumulative IPC: 1.5 (Simulation time: 02 hr 19 min 25 sec)
Simulation finished CPU 0 instructions: 1000000000 cycles: 666933739 cumulative IPC: 1.499 (Simulation time: 02 hr 20 min 38 sec)
Simulation complete CPU 0 instructions: 1000000000 cycles: 666933739 cumulative IPC: 1.499 (Simulation time: 02 hr 20 min 38 sec)

ChampSim completed all CPUs

=== Simulation ===
CPU 0 runs /home/grads/r/raveena_manasi/ECEN_676/ChampSim/dpc3_traces/654.roms_s-842B.champsimtrace.xz

Region of Interest Statistics

CPU 0 cumulative IPC: 1.499 instructions: 1000000000 cycles: 666933739
CPU 0 Branch Prediction Accuracy: 90.04% MPKI: 11.98 Average ROB Occupancy at Mispredict: 51.46
Branch type MPKI
BRANCH_DIRECT_JUMP: 0.04454
BRANCH_INDIRECT: 0
BRANCH_CONDITIONAL: 6.563
BRANCH_DIRECT_CALL: 8e-06
BRANCH_INDIRECT_CALL: 0
BRANCH_RETURN: 5.373

cpu0->cpu0_STLB TOTAL        ACCESS:      54994 HIT:       4596 MISS:      50398 MSHR_MERGE:          0
cpu0->cpu0_STLB LOAD         ACCESS:      54994 HIT:       4596 MISS:      50398 MSHR_MERGE:          0
cpu0->cpu0_STLB RFO          ACCESS:          0 HIT:          0 MISS:          0 MSHR_MERGE:          0
cpu0->cpu0_STLB PREFETCH     ACCESS:          0 HIT:          0 MISS:          0 MSHR_MERGE:          0
cpu0->cpu0_STLB WRITE        ACCESS:          0 HIT:          0 MISS:          0 MSHR_MERGE:          0
cpu0->cpu0_STLB TRANSLATION  ACCESS:          0 HIT:          0 MISS:          0 MSHR_MERGE:          0
cpu0->cpu0_STLB PREFETCH REQUESTED:          0 ISSUED:          0 USEFUL:          0 USELESS:          0
cpu0->cpu0_STLB AVERAGE MISS LATENCY: 128.1 cycles
cpu0->cpu0_L2C TOTAL        ACCESS:   22112260 HIT:    1953509 MISS:   20158751 MSHR_MERGE:     140373
cpu0->cpu0_L2C LOAD         ACCESS:    1502828 HIT:     951813 MISS:     551015 MSHR_MERGE:     123235
cpu0->cpu0_L2C RFO          ACCESS:    1001206 HIT:       1946 MISS:     999260 MSHR_MERGE:          0
cpu0->cpu0_L2C PREFETCH     ACCESS:   18596608 HIT:        278 MISS:   18596330 MSHR_MERGE:      17138
cpu0->cpu0_L2C WRITE        ACCESS:    1001314 HIT:     999305 MISS:       2009 MSHR_MERGE:          0
cpu0->cpu0_L2C TRANSLATION  ACCESS:      10304 HIT:        167 MISS:      10137 MSHR_MERGE:          0
cpu0->cpu0_L2C PREFETCH REQUESTED:   23297030 ISSUED:   18596608 USEFUL:    1074896 USELESS:      11469
cpu0->cpu0_L2C AVERAGE MISS LATENCY: 224.5 cycles
cpu0->cpu0_L1I TOTAL        ACCESS:   18620439 HIT:   18620342 MISS:         97 MSHR_MERGE:         26
cpu0->cpu0_L1I LOAD         ACCESS:   18620439 HIT:   18620342 MISS:         97 MSHR_MERGE:         26
cpu0->cpu0_L1I RFO          ACCESS:          0 HIT:          0 MISS:          0 MSHR_MERGE:          0
cpu0->cpu0_L1I PREFETCH     ACCESS:          0 HIT:          0 MISS:          0 MSHR_MERGE:          0
cpu0->cpu0_L1I WRITE        ACCESS:          0 HIT:          0 MISS:          0 MSHR_MERGE:          0
cpu0->cpu0_L1I TRANSLATION  ACCESS:          0 HIT:          0 MISS:          0 MSHR_MERGE:          0
cpu0->cpu0_L1I PREFETCH REQUESTED:          0 ISSUED:          0 USEFUL:          0 USELESS:          0
cpu0->cpu0_L1I AVERAGE MISS LATENCY: 154.5 cycles
cpu0->cpu0_L1D TOTAL        ACCESS:  239097270 HIT:  230016427 MISS:    9080843 MSHR_MERGE:    6566569
cpu0->cpu0_L1D LOAD         ACCESS:  144663054 HIT:  141227188 MISS:    3435866 MSHR_MERGE:    1933109
cpu0->cpu0_L1D RFO          ACCESS:          0 HIT:          0 MISS:          0 MSHR_MERGE:          0
cpu0->cpu0_L1D PREFETCH     ACCESS:          0 HIT:          0 MISS:          0 MSHR_MERGE:          0
cpu0->cpu0_L1D WRITE        ACCESS:   94383748 HIT:   88749075 MISS:    5634673 MSHR_MERGE:    4633460
cpu0->cpu0_L1D TRANSLATION  ACCESS:      50468 HIT:      40164 MISS:      10304 MSHR_MERGE:          0
cpu0->cpu0_L1D PREFETCH REQUESTED:          0 ISSUED:          0 USEFUL:          0 USELESS:          0
cpu0->cpu0_L1D AVERAGE MISS LATENCY: 148.2 cycles
cpu0->cpu0_ITLB TOTAL        ACCESS:   17100565 HIT:   17100555 MISS:         10 MSHR_MERGE:          3
cpu0->cpu0_ITLB LOAD         ACCESS:   17100565 HIT:   17100555 MISS:         10 MSHR_MERGE:          3
cpu0->cpu0_ITLB RFO          ACCESS:          0 HIT:          0 MISS:          0 MSHR_MERGE:          0
cpu0->cpu0_ITLB PREFETCH     ACCESS:          0 HIT:          0 MISS:          0 MSHR_MERGE:          0
cpu0->cpu0_ITLB WRITE        ACCESS:          0 HIT:          0 MISS:          0 MSHR_MERGE:          0
cpu0->cpu0_ITLB TRANSLATION  ACCESS:          0 HIT:          0 MISS:          0 MSHR_MERGE:          0
cpu0->cpu0_ITLB PREFETCH REQUESTED:          0 ISSUED:          0 USEFUL:          0 USELESS:          0
cpu0->cpu0_ITLB AVERAGE MISS LATENCY: 416.9 cycles
cpu0->cpu0_DTLB TOTAL        ACCESS:  227608723 HIT:  227363680 MISS:     245043 MSHR_MERGE:     190056
cpu0->cpu0_DTLB LOAD         ACCESS:  227608723 HIT:  227363680 MISS:     245043 MSHR_MERGE:     190056
cpu0->cpu0_DTLB RFO          ACCESS:          0 HIT:          0 MISS:          0 MSHR_MERGE:          0
cpu0->cpu0_DTLB PREFETCH     ACCESS:          0 HIT:          0 MISS:          0 MSHR_MERGE:          0
cpu0->cpu0_DTLB WRITE        ACCESS:          0 HIT:          0 MISS:          0 MSHR_MERGE:          0
cpu0->cpu0_DTLB TRANSLATION  ACCESS:          0 HIT:          0 MISS:          0 MSHR_MERGE:          0
cpu0->cpu0_DTLB PREFETCH REQUESTED:          0 ISSUED:          0 USEFUL:          0 USELESS:          0
cpu0->cpu0_DTLB AVERAGE MISS LATENCY: 123.3 cycles
cpu0->LLC TOTAL        ACCESS:   20910489 HIT:   11660840 MISS:    9249649 MSHR_MERGE:    6623937
cpu0->LLC LOAD         ACCESS:     427780 HIT:     344360 MISS:      83420 MSHR_MERGE:      22248
cpu0->LLC RFO          ACCESS:     999260 HIT:         37 MISS:     999223 MSHR_MERGE:          0
cpu0->LLC PREFETCH     ACCESS:   18474032 HIT:   10316665 MISS:    8157367 MSHR_MERGE:    6601689
cpu0->LLC WRITE        ACCESS:     999280 HIT:     997226 MISS:       2054 MSHR_MERGE:          0
cpu0->LLC TRANSLATION  ACCESS:      10137 HIT:       2552 MISS:       7585 MSHR_MERGE:          0
cpu0->LLC PREFETCH REQUESTED:          0 ISSUED:          0 USEFUL:          0 USELESS:          0
cpu0->LLC AVERAGE MISS LATENCY: 287 cycles

DRAM Statistics

Channel 0 RQ ROW_BUFFER_HIT:      45120
  ROW_BUFFER_MISS:    2578537
  AVG DBUS CONGESTED CYCLE: 9.776
Channel 0 WQ ROW_BUFFER_HIT:     177384
  ROW_BUFFER_MISS:     820978
  FULL:          0
Channel 0 REFRESHES ISSUED:      55578
