[VMEM] WARNING: physical memory size is smaller than virtual memory size.
WARNING: option --warmup_instructions is deprecated. Use --warmup-instructions instead.
WARNING: option --simulation_instructions is deprecated. Use --simulation-instructions instead.

*** ChampSim Multicore Out-of-Order Simulator ***
Warmup Instructions: 200000000
Simulation Instructions: 1000000000
Number of CPUs: 1
Page size: 4096

Initialize SIGNATURE TABLE
ST_SET: 1
ST_WAY: 256
ST_TAG_BIT: 16

Initialize PATTERN TABLE
PT_SET: 512
PT_WAY: 4
SIG_DELTA_BIT: 7
C_SIG_BIT: 4
C_DELTA_BIT: 4

Initialize PREFETCH FILTER
FILTER_SET: 1024
Off-chip DRAM Size: 16 GiB Channels: 1 Width: 64-bit Data Rate: 3205 MT/s
Heartbeat CPU 0 instructions: 10000003 cycles: 2799677 heartbeat IPC: 3.572 cumulative IPC: 3.572 (Simulation time: 00 hr 00 min 48 sec)
Heartbeat CPU 0 instructions: 20000003 cycles: 5357191 heartbeat IPC: 3.91 cumulative IPC: 3.733 (Simulation time: 00 hr 01 min 34 sec)
Heartbeat CPU 0 instructions: 30000006 cycles: 7943113 heartbeat IPC: 3.867 cumulative IPC: 3.777 (Simulation time: 00 hr 02 min 21 sec)
Heartbeat CPU 0 instructions: 40000009 cycles: 10514970 heartbeat IPC: 3.888 cumulative IPC: 3.804 (Simulation time: 00 hr 03 min 07 sec)
Heartbeat CPU 0 instructions: 50000012 cycles: 13052100 heartbeat IPC: 3.941 cumulative IPC: 3.831 (Simulation time: 00 hr 03 min 52 sec)
Heartbeat CPU 0 instructions: 60000015 cycles: 15578042 heartbeat IPC: 3.959 cumulative IPC: 3.852 (Simulation time: 00 hr 04 min 37 sec)
Heartbeat CPU 0 instructions: 70000017 cycles: 18092419 heartbeat IPC: 3.977 cumulative IPC: 3.869 (Simulation time: 00 hr 05 min 22 sec)
Heartbeat CPU 0 instructions: 80000018 cycles: 20610395 heartbeat IPC: 3.971 cumulative IPC: 3.882 (Simulation time: 00 hr 06 min 07 sec)
Heartbeat CPU 0 instructions: 90000018 cycles: 23130078 heartbeat IPC: 3.969 cumulative IPC: 3.891 (Simulation time: 00 hr 06 min 52 sec)
Heartbeat CPU 0 instructions: 100000022 cycles: 25647392 heartbeat IPC: 3.972 cumulative IPC: 3.899 (Simulation time: 00 hr 07 min 37 sec)
Heartbeat CPU 0 instructions: 110000025 cycles: 28162499 heartbeat IPC: 3.976 cumulative IPC: 3.906 (Simulation time: 00 hr 08 min 22 sec)
Heartbeat CPU 0 instructions: 120000026 cycles: 30674671 heartbeat IPC: 3.981 cumulative IPC: 3.912 (Simulation time: 00 hr 09 min 06 sec)
Heartbeat CPU 0 instructions: 130000029 cycles: 33185861 heartbeat IPC: 3.982 cumulative IPC: 3.917 (Simulation time: 00 hr 09 min 51 sec)
Heartbeat CPU 0 instructions: 140000030 cycles: 35697331 heartbeat IPC: 3.982 cumulative IPC: 3.922 (Simulation time: 00 hr 10 min 35 sec)
Heartbeat CPU 0 instructions: 150000030 cycles: 38207194 heartbeat IPC: 3.984 cumulative IPC: 3.926 (Simulation time: 00 hr 11 min 19 sec)
Heartbeat CPU 0 instructions: 160000033 cycles: 40716885 heartbeat IPC: 3.985 cumulative IPC: 3.93 (Simulation time: 00 hr 12 min 07 sec)
Heartbeat CPU 0 instructions: 170000033 cycles: 43234762 heartbeat IPC: 3.972 cumulative IPC: 3.932 (Simulation time: 00 hr 12 min 55 sec)
Heartbeat CPU 0 instructions: 180000033 cycles: 45753348 heartbeat IPC: 3.97 cumulative IPC: 3.934 (Simulation time: 00 hr 13 min 42 sec)
Heartbeat CPU 0 instructions: 190000034 cycles: 48271302 heartbeat IPC: 3.971 cumulative IPC: 3.936 (Simulation time: 00 hr 14 min 27 sec)
Warmup finished CPU 0 instructions: 200000003 cycles: 50781834 cumulative IPC: 3.938 (Simulation time: 00 hr 15 min 13 sec)
Warmup complete CPU 0 instructions: 200000003 cycles: 50781834 cumulative IPC: 3.938 (Simulation time: 00 hr 15 min 13 sec)
Heartbeat CPU 0 instructions: 200000035 cycles: 50781842 heartbeat IPC: 3.983 cumulative IPC: 4 (Simulation time: 00 hr 15 min 13 sec)
Heartbeat CPU 0 instructions: 210000035 cycles: 58169996 heartbeat IPC: 1.354 cumulative IPC: 1.354 (Simulation time: 00 hr 16 min 23 sec)
Heartbeat CPU 0 instructions: 220000036 cycles: 64818199 heartbeat IPC: 1.504 cumulative IPC: 1.425 (Simulation time: 00 hr 17 min 28 sec)
Heartbeat CPU 0 instructions: 230000036 cycles: 70892286 heartbeat IPC: 1.646 cumulative IPC: 1.492 (Simulation time: 00 hr 18 min 29 sec)
Heartbeat CPU 0 instructions: 240000036 cycles: 76899458 heartbeat IPC: 1.665 cumulative IPC: 1.532 (Simulation time: 00 hr 19 min 31 sec)
Heartbeat CPU 0 instructions: 250000037 cycles: 82373611 heartbeat IPC: 1.827 cumulative IPC: 1.583 (Simulation time: 00 hr 20 min 30 sec)
Heartbeat CPU 0 instructions: 260000039 cycles: 87201318 heartbeat IPC: 2.071 cumulative IPC: 1.647 (Simulation time: 00 hr 21 min 23 sec)
Heartbeat CPU 0 instructions: 270000041 cycles: 91849125 heartbeat IPC: 2.152 cumulative IPC: 1.705 (Simulation time: 00 hr 22 min 16 sec)
Heartbeat CPU 0 instructions: 280000041 cycles: 99148700 heartbeat IPC: 1.37 cumulative IPC: 1.654 (Simulation time: 00 hr 23 min 25 sec)
Heartbeat CPU 0 instructions: 290000041 cycles: 105229555 heartbeat IPC: 1.645 cumulative IPC: 1.653 (Simulation time: 00 hr 24 min 25 sec)
Heartbeat CPU 0 instructions: 300000042 cycles: 110435739 heartbeat IPC: 1.921 cumulative IPC: 1.676 (Simulation time: 00 hr 25 min 21 sec)
Heartbeat CPU 0 instructions: 310000043 cycles: 115645635 heartbeat IPC: 1.919 cumulative IPC: 1.696 (Simulation time: 00 hr 26 min 17 sec)
Heartbeat CPU 0 instructions: 320000043 cycles: 121692706 heartbeat IPC: 1.654 cumulative IPC: 1.692 (Simulation time: 00 hr 27 min 20 sec)
Heartbeat CPU 0 instructions: 330000047 cycles: 126801698 heartbeat IPC: 1.957 cumulative IPC: 1.71 (Simulation time: 00 hr 28 min 15 sec)
Heartbeat CPU 0 instructions: 340000051 cycles: 133011160 heartbeat IPC: 1.61 cumulative IPC: 1.703 (Simulation time: 00 hr 29 min 17 sec)
Heartbeat CPU 0 instructions: 350000053 cycles: 139630432 heartbeat IPC: 1.511 cumulative IPC: 1.688 (Simulation time: 00 hr 30 min 22 sec)
Heartbeat CPU 0 instructions: 360000057 cycles: 146305976 heartbeat IPC: 1.498 cumulative IPC: 1.675 (Simulation time: 00 hr 31 min 27 sec)
Heartbeat CPU 0 instructions: 370000061 cycles: 152251885 heartbeat IPC: 1.682 cumulative IPC: 1.675 (Simulation time: 00 hr 32 min 28 sec)
Heartbeat CPU 0 instructions: 380000065 cycles: 157822265 heartbeat IPC: 1.795 cumulative IPC: 1.682 (Simulation time: 00 hr 33 min 26 sec)
Heartbeat CPU 0 instructions: 390000065 cycles: 164711223 heartbeat IPC: 1.452 cumulative IPC: 1.668 (Simulation time: 00 hr 34 min 33 sec)
Heartbeat CPU 0 instructions: 400000068 cycles: 171227652 heartbeat IPC: 1.535 cumulative IPC: 1.66 (Simulation time: 00 hr 35 min 37 sec)
Heartbeat CPU 0 instructions: 410000072 cycles: 178017248 heartbeat IPC: 1.473 cumulative IPC: 1.65 (Simulation time: 00 hr 36 min 43 sec)
Heartbeat CPU 0 instructions: 420000076 cycles: 185035435 heartbeat IPC: 1.425 cumulative IPC: 1.639 (Simulation time: 00 hr 37 min 50 sec)
Heartbeat CPU 0 instructions: 430000079 cycles: 191254282 heartbeat IPC: 1.608 cumulative IPC: 1.637 (Simulation time: 00 hr 38 min 52 sec)
Heartbeat CPU 0 instructions: 440000081 cycles: 197388875 heartbeat IPC: 1.63 cumulative IPC: 1.637 (Simulation time: 00 hr 39 min 56 sec)
Heartbeat CPU 0 instructions: 450000082 cycles: 203472434 heartbeat IPC: 1.644 cumulative IPC: 1.637 (Simulation time: 00 hr 40 min 58 sec)
Heartbeat CPU 0 instructions: 460000083 cycles: 209459834 heartbeat IPC: 1.67 cumulative IPC: 1.639 (Simulation time: 00 hr 42 min 01 sec)
Heartbeat CPU 0 instructions: 470000083 cycles: 215588516 heartbeat IPC: 1.632 cumulative IPC: 1.638 (Simulation time: 00 hr 43 min 05 sec)
Heartbeat CPU 0 instructions: 480000085 cycles: 221146572 heartbeat IPC: 1.799 cumulative IPC: 1.644 (Simulation time: 00 hr 44 min 06 sec)
Heartbeat CPU 0 instructions: 490000087 cycles: 226543709 heartbeat IPC: 1.853 cumulative IPC: 1.65 (Simulation time: 00 hr 45 min 04 sec)
Heartbeat CPU 0 instructions: 500000087 cycles: 232389576 heartbeat IPC: 1.711 cumulative IPC: 1.652 (Simulation time: 00 hr 46 min 04 sec)
Heartbeat CPU 0 instructions: 510000087 cycles: 242410523 heartbeat IPC: 0.9979 cumulative IPC: 1.618 (Simulation time: 00 hr 48 min 05 sec)
Heartbeat CPU 0 instructions: 520000087 cycles: 248733496 heartbeat IPC: 1.582 cumulative IPC: 1.617 (Simulation time: 00 hr 49 min 08 sec)
Heartbeat CPU 0 instructions: 530000088 cycles: 254508312 heartbeat IPC: 1.732 cumulative IPC: 1.62 (Simulation time: 00 hr 50 min 07 sec)
Heartbeat CPU 0 instructions: 540000091 cycles: 260181047 heartbeat IPC: 1.763 cumulative IPC: 1.624 (Simulation time: 00 hr 51 min 06 sec)
Heartbeat CPU 0 instructions: 550000092 cycles: 267982502 heartbeat IPC: 1.282 cumulative IPC: 1.611 (Simulation time: 00 hr 52 min 18 sec)
Heartbeat CPU 0 instructions: 560000092 cycles: 273915058 heartbeat IPC: 1.686 cumulative IPC: 1.613 (Simulation time: 00 hr 53 min 19 sec)
Heartbeat CPU 0 instructions: 570000094 cycles: 279896903 heartbeat IPC: 1.672 cumulative IPC: 1.615 (Simulation time: 00 hr 54 min 19 sec)
Heartbeat CPU 0 instructions: 580000096 cycles: 285794515 heartbeat IPC: 1.696 cumulative IPC: 1.617 (Simulation time: 00 hr 55 min 19 sec)
Heartbeat CPU 0 instructions: 590000099 cycles: 291765893 heartbeat IPC: 1.675 cumulative IPC: 1.618 (Simulation time: 00 hr 56 min 19 sec)
Heartbeat CPU 0 instructions: 600000099 cycles: 297944315 heartbeat IPC: 1.619 cumulative IPC: 1.618 (Simulation time: 00 hr 57 min 20 sec)
Heartbeat CPU 0 instructions: 610000100 cycles: 304144410 heartbeat IPC: 1.613 cumulative IPC: 1.618 (Simulation time: 00 hr 58 min 22 sec)
Heartbeat CPU 0 instructions: 620000103 cycles: 310008898 heartbeat IPC: 1.705 cumulative IPC: 1.62 (Simulation time: 00 hr 59 min 21 sec)
Heartbeat CPU 0 instructions: 630000105 cycles: 316156933 heartbeat IPC: 1.627 cumulative IPC: 1.62 (Simulation time: 01 hr 00 min 23 sec)
Heartbeat CPU 0 instructions: 640000106 cycles: 322291935 heartbeat IPC: 1.63 cumulative IPC: 1.621 (Simulation time: 01 hr 01 min 24 sec)
Heartbeat CPU 0 instructions: 650000108 cycles: 327602204 heartbeat IPC: 1.883 cumulative IPC: 1.626 (Simulation time: 01 hr 02 min 20 sec)
Heartbeat CPU 0 instructions: 660000108 cycles: 333701318 heartbeat IPC: 1.64 cumulative IPC: 1.626 (Simulation time: 01 hr 03 min 23 sec)
Heartbeat CPU 0 instructions: 670000110 cycles: 339750086 heartbeat IPC: 1.653 cumulative IPC: 1.626 (Simulation time: 01 hr 04 min 25 sec)
Heartbeat CPU 0 instructions: 680000113 cycles: 345446500 heartbeat IPC: 1.755 cumulative IPC: 1.629 (Simulation time: 01 hr 05 min 27 sec)
Heartbeat CPU 0 instructions: 690000115 cycles: 352106831 heartbeat IPC: 1.501 cumulative IPC: 1.626 (Simulation time: 01 hr 06 min 37 sec)
Heartbeat CPU 0 instructions: 700000116 cycles: 357985266 heartbeat IPC: 1.701 cumulative IPC: 1.628 (Simulation time: 01 hr 07 min 40 sec)
Heartbeat CPU 0 instructions: 710000116 cycles: 364018537 heartbeat IPC: 1.657 cumulative IPC: 1.628 (Simulation time: 01 hr 08 min 44 sec)
Heartbeat CPU 0 instructions: 720000118 cycles: 370103215 heartbeat IPC: 1.643 cumulative IPC: 1.628 (Simulation time: 01 hr 09 min 48 sec)
Heartbeat CPU 0 instructions: 730000118 cycles: 375761639 heartbeat IPC: 1.767 cumulative IPC: 1.631 (Simulation time: 01 hr 10 min 48 sec)
Heartbeat CPU 0 instructions: 740000119 cycles: 381776110 heartbeat IPC: 1.663 cumulative IPC: 1.631 (Simulation time: 01 hr 11 min 51 sec)
Heartbeat CPU 0 instructions: 750000120 cycles: 386715130 heartbeat IPC: 2.025 cumulative IPC: 1.637 (Simulation time: 01 hr 12 min 45 sec)
Heartbeat CPU 0 instructions: 760000121 cycles: 391346278 heartbeat IPC: 2.159 cumulative IPC: 1.644 (Simulation time: 01 hr 13 min 38 sec)
Heartbeat CPU 0 instructions: 770000121 cycles: 396078502 heartbeat IPC: 2.113 cumulative IPC: 1.651 (Simulation time: 01 hr 14 min 30 sec)
Heartbeat CPU 0 instructions: 780000123 cycles: 400684111 heartbeat IPC: 2.171 cumulative IPC: 1.658 (Simulation time: 01 hr 15 min 25 sec)
Heartbeat CPU 0 instructions: 790000123 cycles: 405432494 heartbeat IPC: 2.106 cumulative IPC: 1.664 (Simulation time: 01 hr 16 min 22 sec)
Heartbeat CPU 0 instructions: 800000127 cycles: 410183785 heartbeat IPC: 2.105 cumulative IPC: 1.669 (Simulation time: 01 hr 17 min 15 sec)
Heartbeat CPU 0 instructions: 810000128 cycles: 414940638 heartbeat IPC: 2.102 cumulative IPC: 1.675 (Simulation time: 01 hr 18 min 07 sec)
Heartbeat CPU 0 instructions: 820000128 cycles: 419625090 heartbeat IPC: 2.135 cumulative IPC: 1.681 (Simulation time: 01 hr 18 min 59 sec)
Heartbeat CPU 0 instructions: 830000130 cycles: 424480555 heartbeat IPC: 2.06 cumulative IPC: 1.686 (Simulation time: 01 hr 19 min 53 sec)
Heartbeat CPU 0 instructions: 840000131 cycles: 429050663 heartbeat IPC: 2.188 cumulative IPC: 1.692 (Simulation time: 01 hr 20 min 45 sec)
Heartbeat CPU 0 instructions: 850000132 cycles: 433959364 heartbeat IPC: 2.037 cumulative IPC: 1.696 (Simulation time: 01 hr 21 min 39 sec)
Heartbeat CPU 0 instructions: 860000135 cycles: 438677096 heartbeat IPC: 2.12 cumulative IPC: 1.701 (Simulation time: 01 hr 22 min 31 sec)
Heartbeat CPU 0 instructions: 870000139 cycles: 443480305 heartbeat IPC: 2.082 cumulative IPC: 1.706 (Simulation time: 01 hr 23 min 24 sec)
Heartbeat CPU 0 instructions: 880000139 cycles: 448123173 heartbeat IPC: 2.154 cumulative IPC: 1.711 (Simulation time: 01 hr 24 min 16 sec)
Heartbeat CPU 0 instructions: 890000140 cycles: 452746818 heartbeat IPC: 2.163 cumulative IPC: 1.717 (Simulation time: 01 hr 25 min 08 sec)
Heartbeat CPU 0 instructions: 900000143 cycles: 457446152 heartbeat IPC: 2.128 cumulative IPC: 1.721 (Simulation time: 01 hr 26 min 01 sec)
Heartbeat CPU 0 instructions: 910000143 cycles: 462152434 heartbeat IPC: 2.125 cumulative IPC: 1.726 (Simulation time: 01 hr 26 min 53 sec)
Heartbeat CPU 0 instructions: 920000144 cycles: 466901277 heartbeat IPC: 2.106 cumulative IPC: 1.73 (Simulation time: 01 hr 27 min 46 sec)
Heartbeat CPU 0 instructions: 930000148 cycles: 472734447 heartbeat IPC: 1.714 cumulative IPC: 1.73 (Simulation time: 01 hr 28 min 46 sec)
Heartbeat CPU 0 instructions: 940000151 cycles: 478945977 heartbeat IPC: 1.61 cumulative IPC: 1.728 (Simulation time: 01 hr 29 min 49 sec)
Heartbeat CPU 0 instructions: 950000153 cycles: 485913191 heartbeat IPC: 1.435 cumulative IPC: 1.724 (Simulation time: 01 hr 30 min 56 sec)
Heartbeat CPU 0 instructions: 960000155 cycles: 490879424 heartbeat IPC: 2.014 cumulative IPC: 1.727 (Simulation time: 01 hr 31 min 49 sec)
Heartbeat CPU 0 instructions: 970000155 cycles: 496564371 heartbeat IPC: 1.759 cumulative IPC: 1.727 (Simulation time: 01 hr 32 min 47 sec)
Heartbeat CPU 0 instructions: 980000155 cycles: 504248774 heartbeat IPC: 1.301 cumulative IPC: 1.72 (Simulation time: 01 hr 33 min 59 sec)
Heartbeat CPU 0 instructions: 990000155 cycles: 512061184 heartbeat IPC: 1.28 cumulative IPC: 1.713 (Simulation time: 01 hr 35 min 11 sec)
Heartbeat CPU 0 instructions: 1000000156 cycles: 518598608 heartbeat IPC: 1.53 cumulative IPC: 1.71 (Simulation time: 01 hr 36 min 15 sec)
Heartbeat CPU 0 instructions: 1010000160 cycles: 524348328 heartbeat IPC: 1.739 cumulative IPC: 1.71 (Simulation time: 01 hr 37 min 14 sec)
Heartbeat CPU 0 instructions: 1020000162 cycles: 532725228 heartbeat IPC: 1.194 cumulative IPC: 1.701 (Simulation time: 01 hr 38 min 30 sec)
Heartbeat CPU 0 instructions: 1030000163 cycles: 541849998 heartbeat IPC: 1.096 cumulative IPC: 1.69 (Simulation time: 01 hr 39 min 50 sec)
Heartbeat CPU 0 instructions: 1040000164 cycles: 551763162 heartbeat IPC: 1.009 cumulative IPC: 1.677 (Simulation time: 01 hr 41 min 16 sec)
Heartbeat CPU 0 instructions: 1050000165 cycles: 561082958 heartbeat IPC: 1.073 cumulative IPC: 1.666 (Simulation time: 01 hr 42 min 37 sec)
Heartbeat CPU 0 instructions: 1060000167 cycles: 569003407 heartbeat IPC: 1.263 cumulative IPC: 1.66 (Simulation time: 01 hr 43 min 49 sec)
Heartbeat CPU 0 instructions: 1070000171 cycles: 574614349 heartbeat IPC: 1.782 cumulative IPC: 1.661 (Simulation time: 01 hr 44 min 47 sec)
Heartbeat CPU 0 instructions: 1080000174 cycles: 579648947 heartbeat IPC: 1.986 cumulative IPC: 1.664 (Simulation time: 01 hr 45 min 41 sec)
Heartbeat CPU 0 instructions: 1090000176 cycles: 587186460 heartbeat IPC: 1.327 cumulative IPC: 1.659 (Simulation time: 01 hr 46 min 52 sec)
Heartbeat CPU 0 instructions: 1100000176 cycles: 594393502 heartbeat IPC: 1.388 cumulative IPC: 1.656 (Simulation time: 01 hr 48 min 02 sec)
Heartbeat CPU 0 instructions: 1110000179 cycles: 602999096 heartbeat IPC: 1.162 cumulative IPC: 1.648 (Simulation time: 01 hr 49 min 23 sec)
Heartbeat CPU 0 instructions: 1120000183 cycles: 610849760 heartbeat IPC: 1.274 cumulative IPC: 1.643 (Simulation time: 01 hr 50 min 35 sec)
Heartbeat CPU 0 instructions: 1130000183 cycles: 616665270 heartbeat IPC: 1.72 cumulative IPC: 1.643 (Simulation time: 01 hr 51 min 35 sec)
Heartbeat CPU 0 instructions: 1140000185 cycles: 623000999 heartbeat IPC: 1.578 cumulative IPC: 1.643 (Simulation time: 01 hr 52 min 38 sec)
Heartbeat CPU 0 instructions: 1150000188 cycles: 628298331 heartbeat IPC: 1.888 cumulative IPC: 1.645 (Simulation time: 01 hr 53 min 35 sec)
Heartbeat CPU 0 instructions: 1160000188 cycles: 633568525 heartbeat IPC: 1.897 cumulative IPC: 1.647 (Simulation time: 01 hr 54 min 32 sec)
Heartbeat CPU 0 instructions: 1170000188 cycles: 638723296 heartbeat IPC: 1.94 cumulative IPC: 1.65 (Simulation time: 01 hr 55 min 29 sec)
Heartbeat CPU 0 instructions: 1180000190 cycles: 643937025 heartbeat IPC: 1.918 cumulative IPC: 1.652 (Simulation time: 01 hr 56 min 25 sec)
Heartbeat CPU 0 instructions: 1190000193 cycles: 649305754 heartbeat IPC: 1.863 cumulative IPC: 1.654 (Simulation time: 01 hr 57 min 22 sec)
Simulation finished CPU 0 instructions: 1000000004 cycles: 605374077 cumulative IPC: 1.652 (Simulation time: 01 hr 58 min 28 sec)
Simulation complete CPU 0 instructions: 1000000004 cycles: 605374077 cumulative IPC: 1.652 (Simulation time: 01 hr 58 min 28 sec)

ChampSim completed all CPUs

=== Simulation ===
CPU 0 runs /home/grads/b/bhavishya_k_s/ecen676/ChampSim/dpc3_traces/657.xz_s-3167B.champsimtrace.xz

Region of Interest Statistics

CPU 0 cumulative IPC: 1.652 instructions: 1000000004 cycles: 605374077
CPU 0 Branch Prediction Accuracy: 91.26% MPKI: 13.16 Average ROB Occupancy at Mispredict: 39.83
Branch type MPKI
BRANCH_DIRECT_JUMP: 0.06638
BRANCH_INDIRECT: 0.7311
BRANCH_CONDITIONAL: 12.36
BRANCH_DIRECT_CALL: 5e-06
BRANCH_INDIRECT_CALL: 0.00188
BRANCH_RETURN: 5e-06

cpu0->cpu0_STLB TOTAL        ACCESS:    4973552 HIT:    4502308 MISS:     471244 MSHR_MERGE:          0
cpu0->cpu0_STLB LOAD         ACCESS:    4973552 HIT:    4502308 MISS:     471244 MSHR_MERGE:          0
cpu0->cpu0_STLB RFO          ACCESS:          0 HIT:          0 MISS:          0 MSHR_MERGE:          0
cpu0->cpu0_STLB PREFETCH     ACCESS:          0 HIT:          0 MISS:          0 MSHR_MERGE:          0
cpu0->cpu0_STLB WRITE        ACCESS:          0 HIT:          0 MISS:          0 MSHR_MERGE:          0
cpu0->cpu0_STLB TRANSLATION  ACCESS:          0 HIT:          0 MISS:          0 MSHR_MERGE:          0
cpu0->cpu0_STLB PREFETCH REQUESTED:          0 ISSUED:          0 USEFUL:          0 USELESS:          0
cpu0->cpu0_STLB AVERAGE MISS LATENCY: 29.02 cycles
cpu0->cpu0_L2C TOTAL        ACCESS:   13546571 HIT:    9423442 MISS:    4123129 MSHR_MERGE:    1244207
cpu0->cpu0_L2C LOAD         ACCESS:    3818923 HIT:    2376585 MISS:    1442338 MSHR_MERGE:      39830
cpu0->cpu0_L2C RFO          ACCESS:    1563475 HIT:    1106952 MISS:     456523 MSHR_MERGE:          0
cpu0->cpu0_L2C PREFETCH     ACCESS:    3708673 HIT:    1615255 MISS:    2093418 MSHR_MERGE:    1204377
cpu0->cpu0_L2C WRITE        ACCESS:    4028020 HIT:    4025080 MISS:       2940 MSHR_MERGE:          0
cpu0->cpu0_L2C TRANSLATION  ACCESS:     427480 HIT:     299570 MISS:     127910 MSHR_MERGE:          0
cpu0->cpu0_L2C PREFETCH REQUESTED:    4239493 ISSUED:    3708673 USEFUL:      61437 USELESS:        516
cpu0->cpu0_L2C AVERAGE MISS LATENCY: 138.8 cycles
cpu0->cpu0_L1I TOTAL        ACCESS:   25446259 HIT:   25440450 MISS:       5809 MSHR_MERGE:       2591
cpu0->cpu0_L1I LOAD         ACCESS:   25446259 HIT:   25440450 MISS:       5809 MSHR_MERGE:       2591
cpu0->cpu0_L1I RFO          ACCESS:          0 HIT:          0 MISS:          0 MSHR_MERGE:          0
cpu0->cpu0_L1I PREFETCH     ACCESS:          0 HIT:          0 MISS:          0 MSHR_MERGE:          0
cpu0->cpu0_L1I WRITE        ACCESS:          0 HIT:          0 MISS:          0 MSHR_MERGE:          0
cpu0->cpu0_L1I TRANSLATION  ACCESS:          0 HIT:          0 MISS:          0 MSHR_MERGE:          0
cpu0->cpu0_L1I PREFETCH REQUESTED:          0 ISSUED:          0 USEFUL:          0 USELESS:          0
cpu0->cpu0_L1I AVERAGE MISS LATENCY: 35.81 cycles
cpu0->cpu0_L1D TOTAL        ACCESS:  248430090 HIT:  240376273 MISS:    8053817 MSHR_MERGE:    2244399
cpu0->cpu0_L1D LOAD         ACCESS:  183227610 HIT:  178276430 MISS:    4951180 MSHR_MERGE:    1135384
cpu0->cpu0_L1D RFO          ACCESS:          0 HIT:          0 MISS:          0 MSHR_MERGE:          0
cpu0->cpu0_L1D PREFETCH     ACCESS:          0 HIT:          0 MISS:          0 MSHR_MERGE:          0
cpu0->cpu0_L1D WRITE        ACCESS:   64731227 HIT:   62056163 MISS:    2675064 MSHR_MERGE:    1108922
cpu0->cpu0_L1D TRANSLATION  ACCESS:     471253 HIT:      43680 MISS:     427573 MSHR_MERGE:         93
cpu0->cpu0_L1D PREFETCH REQUESTED:          0 ISSUED:          0 USEFUL:          0 USELESS:          0
cpu0->cpu0_L1D AVERAGE MISS LATENCY: 56.86 cycles
cpu0->cpu0_ITLB TOTAL        ACCESS:   21991092 HIT:   21991088 MISS:          4 MSHR_MERGE:          1
cpu0->cpu0_ITLB LOAD         ACCESS:   21991092 HIT:   21991088 MISS:          4 MSHR_MERGE:          1
cpu0->cpu0_ITLB RFO          ACCESS:          0 HIT:          0 MISS:          0 MSHR_MERGE:          0
cpu0->cpu0_ITLB PREFETCH     ACCESS:          0 HIT:          0 MISS:          0 MSHR_MERGE:          0
cpu0->cpu0_ITLB WRITE        ACCESS:          0 HIT:          0 MISS:          0 MSHR_MERGE:          0
cpu0->cpu0_ITLB TRANSLATION  ACCESS:          0 HIT:          0 MISS:          0 MSHR_MERGE:          0
cpu0->cpu0_ITLB PREFETCH REQUESTED:          0 ISSUED:          0 USEFUL:          0 USELESS:          0
cpu0->cpu0_ITLB AVERAGE MISS LATENCY: 356.3 cycles
cpu0->cpu0_DTLB TOTAL        ACCESS:  238397793 HIT:  232882628 MISS:    5515165 MSHR_MERGE:     541615
cpu0->cpu0_DTLB LOAD         ACCESS:  238397793 HIT:  232882628 MISS:    5515165 MSHR_MERGE:     541615
cpu0->cpu0_DTLB RFO          ACCESS:          0 HIT:          0 MISS:          0 MSHR_MERGE:          0
cpu0->cpu0_DTLB PREFETCH     ACCESS:          0 HIT:          0 MISS:          0 MSHR_MERGE:          0
cpu0->cpu0_DTLB WRITE        ACCESS:          0 HIT:          0 MISS:          0 MSHR_MERGE:          0
cpu0->cpu0_DTLB TRANSLATION  ACCESS:          0 HIT:          0 MISS:          0 MSHR_MERGE:          0
cpu0->cpu0_DTLB PREFETCH REQUESTED:          0 ISSUED:          0 USEFUL:          0 USELESS:          0
cpu0->cpu0_DTLB AVERAGE MISS LATENCY: 7.844 cycles
cpu0->LLC TOTAL        ACCESS:    4224487 HIT:    2462620 MISS:    1761867 MSHR_MERGE:     425332
cpu0->LLC LOAD         ACCESS:    1402508 HIT:     661217 MISS:     741291 MSHR_MERGE:      32086
cpu0->LLC RFO          ACCESS:     456523 HIT:      70700 MISS:     385823 MSHR_MERGE:          6
cpu0->LLC PREFETCH     ACCESS:     880179 HIT:     274731 MISS:     605448 MSHR_MERGE:     393240
cpu0->LLC WRITE        ACCESS:    1357367 HIT:    1346990 MISS:      10377 MSHR_MERGE:          0
cpu0->LLC TRANSLATION  ACCESS:     127910 HIT:     108982 MISS:      18928 MSHR_MERGE:          0
cpu0->LLC PREFETCH REQUESTED:          0 ISSUED:          0 USEFUL:          0 USELESS:          0
cpu0->LLC AVERAGE MISS LATENCY: 209.5 cycles

DRAM Statistics

Channel 0 RQ ROW_BUFFER_HIT:      15352
  ROW_BUFFER_MISS:    1310763
  AVG DBUS CONGESTED CYCLE: 17.03
Channel 0 WQ ROW_BUFFER_HIT:     149603
  ROW_BUFFER_MISS:     761287
  FULL:          0
Channel 0 REFRESHES ISSUED:      50448
