[VMEM] WARNING: physical memory size is smaller than virtual memory size.
WARNING: option --warmup_instructions is deprecated. Use --warmup-instructions instead.
WARNING: option --simulation_instructions is deprecated. Use --simulation-instructions instead.

*** ChampSim Multicore Out-of-Order Simulator ***
Warmup Instructions: 200000000
Simulation Instructions: 1000000000
Number of CPUs: 1
Page size: 4096

Initialize SIGNATURE TABLE
ST_SET: 1
ST_WAY: 256
ST_TAG_BIT: 16

Initialize PATTERN TABLE
PT_SET: 512
PT_WAY: 4
SIG_DELTA_BIT: 7
C_SIG_BIT: 4
C_DELTA_BIT: 4

Initialize PREFETCH FILTER
FILTER_SET: 1024
Off-chip DRAM Size: 16 GiB Channels: 1 Width: 64-bit Data Rate: 3205 MT/s
Heartbeat CPU 0 instructions: 10000002 cycles: 2792772 heartbeat IPC: 3.581 cumulative IPC: 3.581 (Simulation time: 00 hr 00 min 57 sec)
Heartbeat CPU 0 instructions: 20000004 cycles: 5644859 heartbeat IPC: 3.506 cumulative IPC: 3.543 (Simulation time: 00 hr 01 min 56 sec)
Heartbeat CPU 0 instructions: 30000007 cycles: 8497633 heartbeat IPC: 3.505 cumulative IPC: 3.53 (Simulation time: 00 hr 02 min 55 sec)
Heartbeat CPU 0 instructions: 40000010 cycles: 11353854 heartbeat IPC: 3.501 cumulative IPC: 3.523 (Simulation time: 00 hr 03 min 54 sec)
Heartbeat CPU 0 instructions: 50000010 cycles: 14193565 heartbeat IPC: 3.521 cumulative IPC: 3.523 (Simulation time: 00 hr 04 min 52 sec)
Heartbeat CPU 0 instructions: 60000013 cycles: 17005082 heartbeat IPC: 3.557 cumulative IPC: 3.528 (Simulation time: 00 hr 05 min 49 sec)
Heartbeat CPU 0 instructions: 70000013 cycles: 19901754 heartbeat IPC: 3.452 cumulative IPC: 3.517 (Simulation time: 00 hr 06 min 46 sec)
Heartbeat CPU 0 instructions: 80000015 cycles: 22802938 heartbeat IPC: 3.447 cumulative IPC: 3.508 (Simulation time: 00 hr 07 min 43 sec)
Heartbeat CPU 0 instructions: 90000016 cycles: 25582872 heartbeat IPC: 3.597 cumulative IPC: 3.518 (Simulation time: 00 hr 08 min 38 sec)
Heartbeat CPU 0 instructions: 100000018 cycles: 28400393 heartbeat IPC: 3.549 cumulative IPC: 3.521 (Simulation time: 00 hr 09 min 34 sec)
Heartbeat CPU 0 instructions: 110000018 cycles: 31287618 heartbeat IPC: 3.464 cumulative IPC: 3.516 (Simulation time: 00 hr 10 min 31 sec)
Heartbeat CPU 0 instructions: 120000018 cycles: 34186861 heartbeat IPC: 3.449 cumulative IPC: 3.51 (Simulation time: 00 hr 11 min 29 sec)
Heartbeat CPU 0 instructions: 130000021 cycles: 36988773 heartbeat IPC: 3.569 cumulative IPC: 3.515 (Simulation time: 00 hr 12 min 25 sec)
Heartbeat CPU 0 instructions: 140000025 cycles: 39780453 heartbeat IPC: 3.582 cumulative IPC: 3.519 (Simulation time: 00 hr 13 min 20 sec)
Heartbeat CPU 0 instructions: 150000025 cycles: 42613238 heartbeat IPC: 3.53 cumulative IPC: 3.52 (Simulation time: 00 hr 14 min 15 sec)
Heartbeat CPU 0 instructions: 160000029 cycles: 45507573 heartbeat IPC: 3.455 cumulative IPC: 3.516 (Simulation time: 00 hr 15 min 12 sec)
Heartbeat CPU 0 instructions: 170000032 cycles: 48337248 heartbeat IPC: 3.534 cumulative IPC: 3.517 (Simulation time: 00 hr 16 min 07 sec)
Heartbeat CPU 0 instructions: 180000035 cycles: 51197665 heartbeat IPC: 3.496 cumulative IPC: 3.516 (Simulation time: 00 hr 17 min 04 sec)
Heartbeat CPU 0 instructions: 190000037 cycles: 54090768 heartbeat IPC: 3.456 cumulative IPC: 3.513 (Simulation time: 00 hr 17 min 59 sec)
Warmup finished CPU 0 instructions: 200000001 cycles: 56918633 cumulative IPC: 3.514 (Simulation time: 00 hr 18 min 56 sec)
Warmup complete CPU 0 instructions: 200000001 cycles: 56918633 cumulative IPC: 3.514 (Simulation time: 00 hr 18 min 56 sec)
Heartbeat CPU 0 instructions: 200000041 cycles: 56918644 heartbeat IPC: 3.536 cumulative IPC: 3.636 (Simulation time: 00 hr 18 min 56 sec)
Heartbeat CPU 0 instructions: 210000042 cycles: 61265540 heartbeat IPC: 2.3 cumulative IPC: 2.3 (Simulation time: 00 hr 19 min 56 sec)
Heartbeat CPU 0 instructions: 220000042 cycles: 65565688 heartbeat IPC: 2.326 cumulative IPC: 2.313 (Simulation time: 00 hr 20 min 53 sec)
Heartbeat CPU 0 instructions: 230000042 cycles: 69732699 heartbeat IPC: 2.4 cumulative IPC: 2.341 (Simulation time: 00 hr 21 min 50 sec)
Heartbeat CPU 0 instructions: 240000044 cycles: 74036385 heartbeat IPC: 2.324 cumulative IPC: 2.337 (Simulation time: 00 hr 22 min 47 sec)
Heartbeat CPU 0 instructions: 250000048 cycles: 78395520 heartbeat IPC: 2.294 cumulative IPC: 2.328 (Simulation time: 00 hr 23 min 46 sec)
Heartbeat CPU 0 instructions: 260000048 cycles: 82686042 heartbeat IPC: 2.331 cumulative IPC: 2.329 (Simulation time: 00 hr 24 min 42 sec)
Heartbeat CPU 0 instructions: 270000051 cycles: 86918215 heartbeat IPC: 2.363 cumulative IPC: 2.333 (Simulation time: 00 hr 25 min 38 sec)
Heartbeat CPU 0 instructions: 280000051 cycles: 91108070 heartbeat IPC: 2.387 cumulative IPC: 2.34 (Simulation time: 00 hr 26 min 34 sec)
Heartbeat CPU 0 instructions: 290000051 cycles: 95342857 heartbeat IPC: 2.361 cumulative IPC: 2.342 (Simulation time: 00 hr 27 min 30 sec)
Heartbeat CPU 0 instructions: 300000052 cycles: 99740453 heartbeat IPC: 2.274 cumulative IPC: 2.335 (Simulation time: 00 hr 28 min 27 sec)
Heartbeat CPU 0 instructions: 310000055 cycles: 104204514 heartbeat IPC: 2.24 cumulative IPC: 2.326 (Simulation time: 00 hr 29 min 23 sec)
Heartbeat CPU 0 instructions: 320000058 cycles: 108518420 heartbeat IPC: 2.318 cumulative IPC: 2.326 (Simulation time: 00 hr 30 min 18 sec)
Heartbeat CPU 0 instructions: 330000059 cycles: 112855428 heartbeat IPC: 2.306 cumulative IPC: 2.324 (Simulation time: 00 hr 31 min 18 sec)
Heartbeat CPU 0 instructions: 340000060 cycles: 117245012 heartbeat IPC: 2.278 cumulative IPC: 2.321 (Simulation time: 00 hr 32 min 16 sec)
Heartbeat CPU 0 instructions: 350000061 cycles: 121637444 heartbeat IPC: 2.277 cumulative IPC: 2.318 (Simulation time: 00 hr 33 min 13 sec)
Heartbeat CPU 0 instructions: 360000063 cycles: 126076771 heartbeat IPC: 2.253 cumulative IPC: 2.314 (Simulation time: 00 hr 34 min 10 sec)
Heartbeat CPU 0 instructions: 370000064 cycles: 130262330 heartbeat IPC: 2.389 cumulative IPC: 2.318 (Simulation time: 00 hr 35 min 08 sec)
Heartbeat CPU 0 instructions: 380000064 cycles: 134494535 heartbeat IPC: 2.363 cumulative IPC: 2.32 (Simulation time: 00 hr 36 min 07 sec)
Heartbeat CPU 0 instructions: 390000068 cycles: 138830698 heartbeat IPC: 2.306 cumulative IPC: 2.32 (Simulation time: 00 hr 37 min 05 sec)
Heartbeat CPU 0 instructions: 400000070 cycles: 143090476 heartbeat IPC: 2.348 cumulative IPC: 2.321 (Simulation time: 00 hr 38 min 02 sec)
Heartbeat CPU 0 instructions: 410000070 cycles: 147371401 heartbeat IPC: 2.336 cumulative IPC: 2.322 (Simulation time: 00 hr 39 min 01 sec)
Heartbeat CPU 0 instructions: 420000070 cycles: 151534043 heartbeat IPC: 2.402 cumulative IPC: 2.325 (Simulation time: 00 hr 39 min 59 sec)
Heartbeat CPU 0 instructions: 430000071 cycles: 155857066 heartbeat IPC: 2.313 cumulative IPC: 2.325 (Simulation time: 00 hr 40 min 57 sec)
Heartbeat CPU 0 instructions: 440000073 cycles: 160276576 heartbeat IPC: 2.263 cumulative IPC: 2.322 (Simulation time: 00 hr 41 min 55 sec)
Heartbeat CPU 0 instructions: 450000073 cycles: 164524033 heartbeat IPC: 2.354 cumulative IPC: 2.323 (Simulation time: 00 hr 42 min 53 sec)
Heartbeat CPU 0 instructions: 460000074 cycles: 168990473 heartbeat IPC: 2.239 cumulative IPC: 2.32 (Simulation time: 00 hr 43 min 55 sec)
Heartbeat CPU 0 instructions: 470000077 cycles: 176004832 heartbeat IPC: 1.426 cumulative IPC: 2.267 (Simulation time: 00 hr 45 min 11 sec)
Heartbeat CPU 0 instructions: 480000078 cycles: 182241021 heartbeat IPC: 1.604 cumulative IPC: 2.234 (Simulation time: 00 hr 46 min 25 sec)
Heartbeat CPU 0 instructions: 490000079 cycles: 187213614 heartbeat IPC: 2.011 cumulative IPC: 2.226 (Simulation time: 00 hr 47 min 34 sec)
Heartbeat CPU 0 instructions: 500000079 cycles: 192324869 heartbeat IPC: 1.956 cumulative IPC: 2.216 (Simulation time: 00 hr 48 min 40 sec)
Heartbeat CPU 0 instructions: 510000081 cycles: 200681112 heartbeat IPC: 1.197 cumulative IPC: 2.156 (Simulation time: 00 hr 50 min 04 sec)
Heartbeat CPU 0 instructions: 520000084 cycles: 211653855 heartbeat IPC: 0.9113 cumulative IPC: 2.068 (Simulation time: 00 hr 51 min 50 sec)
Heartbeat CPU 0 instructions: 530000088 cycles: 220930333 heartbeat IPC: 1.078 cumulative IPC: 2.012 (Simulation time: 00 hr 53 min 31 sec)
Heartbeat CPU 0 instructions: 540000089 cycles: 229730990 heartbeat IPC: 1.136 cumulative IPC: 1.967 (Simulation time: 00 hr 55 min 04 sec)
Heartbeat CPU 0 instructions: 550000091 cycles: 240738042 heartbeat IPC: 0.9085 cumulative IPC: 1.904 (Simulation time: 00 hr 56 min 48 sec)
Heartbeat CPU 0 instructions: 560000093 cycles: 246049421 heartbeat IPC: 1.883 cumulative IPC: 1.903 (Simulation time: 00 hr 57 min 56 sec)
Heartbeat CPU 0 instructions: 570000097 cycles: 251184937 heartbeat IPC: 1.947 cumulative IPC: 1.905 (Simulation time: 00 hr 59 min 03 sec)
Heartbeat CPU 0 instructions: 580000099 cycles: 256501750 heartbeat IPC: 1.881 cumulative IPC: 1.904 (Simulation time: 01 hr 00 min 13 sec)
Heartbeat CPU 0 instructions: 590000100 cycles: 261869211 heartbeat IPC: 1.863 cumulative IPC: 1.903 (Simulation time: 01 hr 01 min 22 sec)
Heartbeat CPU 0 instructions: 600000103 cycles: 270873245 heartbeat IPC: 1.111 cumulative IPC: 1.87 (Simulation time: 01 hr 02 min 56 sec)
Heartbeat CPU 0 instructions: 610000103 cycles: 281600940 heartbeat IPC: 0.9322 cumulative IPC: 1.825 (Simulation time: 01 hr 04 min 44 sec)
Heartbeat CPU 0 instructions: 620000103 cycles: 292180246 heartbeat IPC: 0.9452 cumulative IPC: 1.785 (Simulation time: 01 hr 06 min 32 sec)
Heartbeat CPU 0 instructions: 630000104 cycles: 300554973 heartbeat IPC: 1.194 cumulative IPC: 1.765 (Simulation time: 01 hr 08 min 04 sec)
Heartbeat CPU 0 instructions: 640000108 cycles: 310022018 heartbeat IPC: 1.056 cumulative IPC: 1.738 (Simulation time: 01 hr 09 min 44 sec)
Heartbeat CPU 0 instructions: 650000108 cycles: 321232436 heartbeat IPC: 0.892 cumulative IPC: 1.703 (Simulation time: 01 hr 11 min 37 sec)
Heartbeat CPU 0 instructions: 660000111 cycles: 331942333 heartbeat IPC: 0.9337 cumulative IPC: 1.673 (Simulation time: 01 hr 13 min 25 sec)
Heartbeat CPU 0 instructions: 670000113 cycles: 339073702 heartbeat IPC: 1.402 cumulative IPC: 1.666 (Simulation time: 01 hr 14 min 49 sec)
Heartbeat CPU 0 instructions: 680000114 cycles: 352035473 heartbeat IPC: 0.7715 cumulative IPC: 1.626 (Simulation time: 01 hr 16 min 53 sec)
Heartbeat CPU 0 instructions: 690000114 cycles: 362968010 heartbeat IPC: 0.9147 cumulative IPC: 1.601 (Simulation time: 01 hr 18 min 45 sec)
Heartbeat CPU 0 instructions: 700000117 cycles: 367352674 heartbeat IPC: 2.281 cumulative IPC: 1.611 (Simulation time: 01 hr 19 min 46 sec)
Heartbeat CPU 0 instructions: 710000117 cycles: 371808941 heartbeat IPC: 2.244 cumulative IPC: 1.62 (Simulation time: 01 hr 20 min 49 sec)
Heartbeat CPU 0 instructions: 720000120 cycles: 376308753 heartbeat IPC: 2.222 cumulative IPC: 1.628 (Simulation time: 01 hr 21 min 52 sec)
Heartbeat CPU 0 instructions: 730000122 cycles: 380618353 heartbeat IPC: 2.32 cumulative IPC: 1.637 (Simulation time: 01 hr 22 min 54 sec)
Heartbeat CPU 0 instructions: 740000124 cycles: 385101285 heartbeat IPC: 2.231 cumulative IPC: 1.645 (Simulation time: 01 hr 23 min 58 sec)
Heartbeat CPU 0 instructions: 750000124 cycles: 389595245 heartbeat IPC: 2.225 cumulative IPC: 1.653 (Simulation time: 01 hr 25 min 01 sec)
Heartbeat CPU 0 instructions: 760000125 cycles: 394201594 heartbeat IPC: 2.171 cumulative IPC: 1.66 (Simulation time: 01 hr 26 min 04 sec)
Heartbeat CPU 0 instructions: 770000125 cycles: 398628964 heartbeat IPC: 2.259 cumulative IPC: 1.668 (Simulation time: 01 hr 27 min 07 sec)
Heartbeat CPU 0 instructions: 780000127 cycles: 402921396 heartbeat IPC: 2.33 cumulative IPC: 1.676 (Simulation time: 01 hr 28 min 10 sec)
Heartbeat CPU 0 instructions: 790000127 cycles: 407459380 heartbeat IPC: 2.204 cumulative IPC: 1.683 (Simulation time: 01 hr 29 min 13 sec)
Heartbeat CPU 0 instructions: 800000128 cycles: 411784877 heartbeat IPC: 2.312 cumulative IPC: 1.691 (Simulation time: 01 hr 30 min 16 sec)
Heartbeat CPU 0 instructions: 810000129 cycles: 416486340 heartbeat IPC: 2.127 cumulative IPC: 1.696 (Simulation time: 01 hr 31 min 22 sec)
Heartbeat CPU 0 instructions: 820000132 cycles: 421087477 heartbeat IPC: 2.173 cumulative IPC: 1.703 (Simulation time: 01 hr 32 min 24 sec)
Heartbeat CPU 0 instructions: 830000133 cycles: 425645422 heartbeat IPC: 2.194 cumulative IPC: 1.709 (Simulation time: 01 hr 33 min 25 sec)
Heartbeat CPU 0 instructions: 840000137 cycles: 430231709 heartbeat IPC: 2.18 cumulative IPC: 1.714 (Simulation time: 01 hr 34 min 28 sec)
Heartbeat CPU 0 instructions: 850000138 cycles: 434724170 heartbeat IPC: 2.226 cumulative IPC: 1.72 (Simulation time: 01 hr 35 min 32 sec)
Heartbeat CPU 0 instructions: 860000140 cycles: 439142392 heartbeat IPC: 2.263 cumulative IPC: 1.727 (Simulation time: 01 hr 36 min 35 sec)
Heartbeat CPU 0 instructions: 870000140 cycles: 443429934 heartbeat IPC: 2.332 cumulative IPC: 1.733 (Simulation time: 01 hr 37 min 39 sec)
Heartbeat CPU 0 instructions: 880000144 cycles: 447822798 heartbeat IPC: 2.276 cumulative IPC: 1.74 (Simulation time: 01 hr 38 min 42 sec)
Heartbeat CPU 0 instructions: 890000145 cycles: 452239825 heartbeat IPC: 2.264 cumulative IPC: 1.745 (Simulation time: 01 hr 39 min 45 sec)
Heartbeat CPU 0 instructions: 900000145 cycles: 456673716 heartbeat IPC: 2.255 cumulative IPC: 1.751 (Simulation time: 01 hr 40 min 47 sec)
Heartbeat CPU 0 instructions: 910000145 cycles: 461223285 heartbeat IPC: 2.198 cumulative IPC: 1.756 (Simulation time: 01 hr 41 min 53 sec)
Heartbeat CPU 0 instructions: 920000145 cycles: 465703422 heartbeat IPC: 2.232 cumulative IPC: 1.761 (Simulation time: 01 hr 42 min 57 sec)
Heartbeat CPU 0 instructions: 930000147 cycles: 470325524 heartbeat IPC: 2.164 cumulative IPC: 1.766 (Simulation time: 01 hr 44 min 03 sec)
Heartbeat CPU 0 instructions: 940000147 cycles: 474892598 heartbeat IPC: 2.19 cumulative IPC: 1.77 (Simulation time: 01 hr 45 min 11 sec)
Heartbeat CPU 0 instructions: 950000148 cycles: 479266952 heartbeat IPC: 2.286 cumulative IPC: 1.776 (Simulation time: 01 hr 46 min 17 sec)
Heartbeat CPU 0 instructions: 960000148 cycles: 483729615 heartbeat IPC: 2.241 cumulative IPC: 1.781 (Simulation time: 01 hr 47 min 21 sec)
Heartbeat CPU 0 instructions: 970000149 cycles: 488198288 heartbeat IPC: 2.238 cumulative IPC: 1.785 (Simulation time: 01 hr 48 min 23 sec)
Heartbeat CPU 0 instructions: 980000150 cycles: 492749763 heartbeat IPC: 2.197 cumulative IPC: 1.79 (Simulation time: 01 hr 49 min 30 sec)
Heartbeat CPU 0 instructions: 990000153 cycles: 497144722 heartbeat IPC: 2.275 cumulative IPC: 1.795 (Simulation time: 01 hr 50 min 31 sec)
Heartbeat CPU 0 instructions: 1000000153 cycles: 501677294 heartbeat IPC: 2.206 cumulative IPC: 1.799 (Simulation time: 01 hr 51 min 38 sec)
Heartbeat CPU 0 instructions: 1010000154 cycles: 506246194 heartbeat IPC: 2.189 cumulative IPC: 1.803 (Simulation time: 01 hr 52 min 42 sec)
Heartbeat CPU 0 instructions: 1020000158 cycles: 510700410 heartbeat IPC: 2.245 cumulative IPC: 1.807 (Simulation time: 01 hr 53 min 45 sec)
Heartbeat CPU 0 instructions: 1030000161 cycles: 515133926 heartbeat IPC: 2.256 cumulative IPC: 1.811 (Simulation time: 01 hr 54 min 47 sec)
Heartbeat CPU 0 instructions: 1040000161 cycles: 519531800 heartbeat IPC: 2.274 cumulative IPC: 1.816 (Simulation time: 01 hr 55 min 50 sec)
Heartbeat CPU 0 instructions: 1050000161 cycles: 523932440 heartbeat IPC: 2.272 cumulative IPC: 1.82 (Simulation time: 01 hr 56 min 55 sec)
Heartbeat CPU 0 instructions: 1060000162 cycles: 528447907 heartbeat IPC: 2.215 cumulative IPC: 1.824 (Simulation time: 01 hr 58 min 01 sec)
Heartbeat CPU 0 instructions: 1070000164 cycles: 532992045 heartbeat IPC: 2.201 cumulative IPC: 1.827 (Simulation time: 01 hr 59 min 05 sec)
Heartbeat CPU 0 instructions: 1080000164 cycles: 537429327 heartbeat IPC: 2.254 cumulative IPC: 1.831 (Simulation time: 02 hr 00 min 08 sec)
Heartbeat CPU 0 instructions: 1090000167 cycles: 542089438 heartbeat IPC: 2.146 cumulative IPC: 1.834 (Simulation time: 02 hr 01 min 18 sec)
Heartbeat CPU 0 instructions: 1100000168 cycles: 546612216 heartbeat IPC: 2.211 cumulative IPC: 1.838 (Simulation time: 02 hr 02 min 25 sec)
Heartbeat CPU 0 instructions: 1110000168 cycles: 551193294 heartbeat IPC: 2.183 cumulative IPC: 1.841 (Simulation time: 02 hr 03 min 29 sec)
Heartbeat CPU 0 instructions: 1120000171 cycles: 555599605 heartbeat IPC: 2.269 cumulative IPC: 1.845 (Simulation time: 02 hr 04 min 32 sec)
Heartbeat CPU 0 instructions: 1130000175 cycles: 559993334 heartbeat IPC: 2.276 cumulative IPC: 1.849 (Simulation time: 02 hr 05 min 38 sec)
Heartbeat CPU 0 instructions: 1140000178 cycles: 564579091 heartbeat IPC: 2.181 cumulative IPC: 1.852 (Simulation time: 02 hr 06 min 42 sec)
Heartbeat CPU 0 instructions: 1150000180 cycles: 569018742 heartbeat IPC: 2.252 cumulative IPC: 1.855 (Simulation time: 02 hr 07 min 45 sec)
Heartbeat CPU 0 instructions: 1160000184 cycles: 573446833 heartbeat IPC: 2.258 cumulative IPC: 1.859 (Simulation time: 02 hr 08 min 48 sec)
Heartbeat CPU 0 instructions: 1170000187 cycles: 577778662 heartbeat IPC: 2.308 cumulative IPC: 1.862 (Simulation time: 02 hr 09 min 52 sec)
Heartbeat CPU 0 instructions: 1180000188 cycles: 582259406 heartbeat IPC: 2.232 cumulative IPC: 1.865 (Simulation time: 02 hr 10 min 55 sec)
Heartbeat CPU 0 instructions: 1190000189 cycles: 586806294 heartbeat IPC: 2.199 cumulative IPC: 1.868 (Simulation time: 02 hr 11 min 58 sec)
Simulation finished CPU 0 instructions: 1000000003 cycles: 534488980 cumulative IPC: 1.871 (Simulation time: 02 hr 13 min 02 sec)
Simulation complete CPU 0 instructions: 1000000003 cycles: 534488980 cumulative IPC: 1.871 (Simulation time: 02 hr 13 min 02 sec)

ChampSim completed all CPUs

=== Simulation ===
CPU 0 runs /home/grads/r/raveena_manasi/ECEN_676/ChampSim/dpc3_traces/600.perlbench_s-210B.champsimtrace.xz

Region of Interest Statistics

CPU 0 cumulative IPC: 1.871 instructions: 1000000003 cycles: 534488980
CPU 0 Branch Prediction Accuracy: 96.89% MPKI: 4.626 Average ROB Occupancy at Mispredict: 97.84
Branch type MPKI
BRANCH_DIRECT_JUMP: 0.04858
BRANCH_INDIRECT: 0.3106
BRANCH_CONDITIONAL: 4.107
BRANCH_DIRECT_CALL: 0.01168
BRANCH_INDIRECT_CALL: 0.1355
BRANCH_RETURN: 0.01204

cpu0->cpu0_STLB TOTAL        ACCESS:    1177871 HIT:    1144602 MISS:      33269 MSHR_MERGE:          0
cpu0->cpu0_STLB LOAD         ACCESS:    1177871 HIT:    1144602 MISS:      33269 MSHR_MERGE:          0
cpu0->cpu0_STLB RFO          ACCESS:          0 HIT:          0 MISS:          0 MSHR_MERGE:          0
cpu0->cpu0_STLB PREFETCH     ACCESS:          0 HIT:          0 MISS:          0 MSHR_MERGE:          0
cpu0->cpu0_STLB WRITE        ACCESS:          0 HIT:          0 MISS:          0 MSHR_MERGE:          0
cpu0->cpu0_STLB TRANSLATION  ACCESS:          0 HIT:          0 MISS:          0 MSHR_MERGE:          0
cpu0->cpu0_STLB PREFETCH REQUESTED:          0 ISSUED:          0 USEFUL:          0 USELESS:          0
cpu0->cpu0_STLB AVERAGE MISS LATENCY: 176.8 cycles
cpu0->cpu0_L2C TOTAL        ACCESS:    5173297 HIT:    3926554 MISS:    1246743 MSHR_MERGE:     139750
cpu0->cpu0_L2C LOAD         ACCESS:    2637986 HIT:    2227609 MISS:     410377 MSHR_MERGE:        768
cpu0->cpu0_L2C RFO          ACCESS:      85461 HIT:      56489 MISS:      28972 MSHR_MERGE:          1
cpu0->cpu0_L2C PREFETCH     ACCESS:    2142420 HIT:    1360218 MISS:     782202 MSHR_MERGE:     138981
cpu0->cpu0_L2C WRITE        ACCESS:     272945 HIT:     271784 MISS:       1161 MSHR_MERGE:          0
cpu0->cpu0_L2C TRANSLATION  ACCESS:      34485 HIT:      10454 MISS:      24031 MSHR_MERGE:          0
cpu0->cpu0_L2C PREFETCH REQUESTED:    2142516 ISSUED:    2142420 USEFUL:       3336 USELESS:        436
cpu0->cpu0_L2C AVERAGE MISS LATENCY: 124.4 cycles
cpu0->cpu0_L1I TOTAL        ACCESS:   54785508 HIT:   52711389 MISS:    2074119 MSHR_MERGE:     423748
cpu0->cpu0_L1I LOAD         ACCESS:   54785508 HIT:   52711389 MISS:    2074119 MSHR_MERGE:     423748
cpu0->cpu0_L1I RFO          ACCESS:          0 HIT:          0 MISS:          0 MSHR_MERGE:          0
cpu0->cpu0_L1I PREFETCH     ACCESS:          0 HIT:          0 MISS:          0 MSHR_MERGE:          0
cpu0->cpu0_L1I WRITE        ACCESS:          0 HIT:          0 MISS:          0 MSHR_MERGE:          0
cpu0->cpu0_L1I TRANSLATION  ACCESS:          0 HIT:          0 MISS:          0 MSHR_MERGE:          0
cpu0->cpu0_L1I PREFETCH REQUESTED:          0 ISSUED:          0 USEFUL:          0 USELESS:          0
cpu0->cpu0_L1I AVERAGE MISS LATENCY: 9.363 cycles
cpu0->cpu0_L1D TOTAL        ACCESS:  329189430 HIT:  327640611 MISS:    1548819 MSHR_MERGE:     441253
cpu0->cpu0_L1D LOAD         ACCESS:  135714758 HIT:  134453735 MISS:    1261023 MSHR_MERGE:     273406
cpu0->cpu0_L1D RFO          ACCESS:          0 HIT:          0 MISS:          0 MSHR_MERGE:          0
cpu0->cpu0_L1D PREFETCH     ACCESS:          0 HIT:          0 MISS:          0 MSHR_MERGE:          0
cpu0->cpu0_L1D WRITE        ACCESS:  193436884 HIT:  193183577 MISS:     253307 MSHR_MERGE:     167843
cpu0->cpu0_L1D TRANSLATION  ACCESS:      37788 HIT:       3299 MISS:      34489 MSHR_MERGE:          4
cpu0->cpu0_L1D PREFETCH REQUESTED:          0 ISSUED:          0 USEFUL:          0 USELESS:          0
cpu0->cpu0_L1D AVERAGE MISS LATENCY: 57.28 cycles
cpu0->cpu0_ITLB TOTAL        ACCESS:   47669888 HIT:   47376552 MISS:     293336 MSHR_MERGE:     174850
cpu0->cpu0_ITLB LOAD         ACCESS:   47669888 HIT:   47376552 MISS:     293336 MSHR_MERGE:     174850
cpu0->cpu0_ITLB RFO          ACCESS:          0 HIT:          0 MISS:          0 MSHR_MERGE:          0
cpu0->cpu0_ITLB PREFETCH     ACCESS:          0 HIT:          0 MISS:          0 MSHR_MERGE:          0
cpu0->cpu0_ITLB WRITE        ACCESS:          0 HIT:          0 MISS:          0 MSHR_MERGE:          0
cpu0->cpu0_ITLB TRANSLATION  ACCESS:          0 HIT:          0 MISS:          0 MSHR_MERGE:          0
cpu0->cpu0_ITLB PREFETCH REQUESTED:          0 ISSUED:          0 USEFUL:          0 USELESS:          0
cpu0->cpu0_ITLB AVERAGE MISS LATENCY: 7.082 cycles
cpu0->cpu0_DTLB TOTAL        ACCESS:  296588318 HIT:  295245691 MISS:    1342627 MSHR_MERGE:     283242
cpu0->cpu0_DTLB LOAD         ACCESS:  296588318 HIT:  295245691 MISS:    1342627 MSHR_MERGE:     283242
cpu0->cpu0_DTLB RFO          ACCESS:          0 HIT:          0 MISS:          0 MSHR_MERGE:          0
cpu0->cpu0_DTLB PREFETCH     ACCESS:          0 HIT:          0 MISS:          0 MSHR_MERGE:          0
cpu0->cpu0_DTLB WRITE        ACCESS:          0 HIT:          0 MISS:          0 MSHR_MERGE:          0
cpu0->cpu0_DTLB TRANSLATION  ACCESS:          0 HIT:          0 MISS:          0 MSHR_MERGE:          0
cpu0->cpu0_DTLB PREFETCH REQUESTED:          0 ISSUED:          0 USEFUL:          0 USELESS:          0
cpu0->cpu0_DTLB AVERAGE MISS LATENCY: 10.35 cycles
cpu0->LLC TOTAL        ACCESS:    1199770 HIT:     724683 MISS:     475087 MSHR_MERGE:      17953
cpu0->LLC LOAD         ACCESS:     409609 HIT:     167664 MISS:     241945 MSHR_MERGE:      16643
cpu0->LLC RFO          ACCESS:      28971 HIT:       8959 MISS:      20012 MSHR_MERGE:        104
cpu0->LLC PREFETCH     ACCESS:     643217 HIT:     451809 MISS:     191408 MSHR_MERGE:       1206
cpu0->LLC WRITE        ACCESS:      93942 HIT:      92151 MISS:       1791 MSHR_MERGE:          0
cpu0->LLC TRANSLATION  ACCESS:      24031 HIT:       4100 MISS:      19931 MSHR_MERGE:          0
cpu0->LLC PREFETCH REQUESTED:          0 ISSUED:          0 USEFUL:          0 USELESS:          0
cpu0->LLC AVERAGE MISS LATENCY: 177.9 cycles

DRAM Statistics

Channel 0 RQ ROW_BUFFER_HIT:       8022
  ROW_BUFFER_MISS:     447315
  AVG DBUS CONGESTED CYCLE: 18.57
Channel 0 WQ ROW_BUFFER_HIT:      21531
  ROW_BUFFER_MISS:      45009
  FULL:          0
Channel 0 REFRESHES ISSUED:      44540
