[VMEM] WARNING: physical memory size is smaller than virtual memory size.
WARNING: option --warmup_instructions is deprecated. Use --warmup-instructions instead.
WARNING: option --simulation_instructions is deprecated. Use --simulation-instructions instead.

*** ChampSim Multicore Out-of-Order Simulator ***
Warmup Instructions: 200000000
Simulation Instructions: 1000000000
Number of CPUs: 1
Page size: 4096

Initialize SIGNATURE TABLE
ST_SET: 1
ST_WAY: 256
ST_TAG_BIT: 16

Initialize PATTERN TABLE
PT_SET: 512
PT_WAY: 4
SIG_DELTA_BIT: 7
C_SIG_BIT: 4
C_DELTA_BIT: 4

Initialize PREFETCH FILTER
FILTER_SET: 1024
Off-chip DRAM Size: 16 GiB Channels: 1 Width: 64-bit Data Rate: 3205 MT/s
Heartbeat CPU 0 instructions: 10000004 cycles: 2741429 heartbeat IPC: 3.648 cumulative IPC: 3.648 (Simulation time: 00 hr 00 min 54 sec)
Heartbeat CPU 0 instructions: 20000006 cycles: 5493102 heartbeat IPC: 3.634 cumulative IPC: 3.641 (Simulation time: 00 hr 01 min 48 sec)
Heartbeat CPU 0 instructions: 30000007 cycles: 8185360 heartbeat IPC: 3.714 cumulative IPC: 3.665 (Simulation time: 00 hr 02 min 42 sec)
Heartbeat CPU 0 instructions: 40000010 cycles: 10690366 heartbeat IPC: 3.992 cumulative IPC: 3.742 (Simulation time: 00 hr 03 min 35 sec)
Heartbeat CPU 0 instructions: 50000011 cycles: 13190366 heartbeat IPC: 4 cumulative IPC: 3.791 (Simulation time: 00 hr 04 min 27 sec)
Heartbeat CPU 0 instructions: 60000011 cycles: 15690506 heartbeat IPC: 4 cumulative IPC: 3.824 (Simulation time: 00 hr 05 min 19 sec)
Heartbeat CPU 0 instructions: 70000013 cycles: 18199261 heartbeat IPC: 3.986 cumulative IPC: 3.846 (Simulation time: 00 hr 06 min 12 sec)
Heartbeat CPU 0 instructions: 80000014 cycles: 20699431 heartbeat IPC: 4 cumulative IPC: 3.865 (Simulation time: 00 hr 07 min 04 sec)
Heartbeat CPU 0 instructions: 90000017 cycles: 23199442 heartbeat IPC: 4 cumulative IPC: 3.879 (Simulation time: 00 hr 07 min 56 sec)
Heartbeat CPU 0 instructions: 100000019 cycles: 25845804 heartbeat IPC: 3.779 cumulative IPC: 3.869 (Simulation time: 00 hr 08 min 51 sec)
Heartbeat CPU 0 instructions: 110000021 cycles: 28346082 heartbeat IPC: 4 cumulative IPC: 3.881 (Simulation time: 00 hr 09 min 44 sec)
Heartbeat CPU 0 instructions: 120000025 cycles: 30846083 heartbeat IPC: 4 cumulative IPC: 3.89 (Simulation time: 00 hr 10 min 36 sec)
Heartbeat CPU 0 instructions: 130000028 cycles: 33372678 heartbeat IPC: 3.958 cumulative IPC: 3.895 (Simulation time: 00 hr 11 min 29 sec)
Heartbeat CPU 0 instructions: 140000030 cycles: 35872949 heartbeat IPC: 4 cumulative IPC: 3.903 (Simulation time: 00 hr 12 min 22 sec)
Heartbeat CPU 0 instructions: 150000033 cycles: 38372951 heartbeat IPC: 4 cumulative IPC: 3.909 (Simulation time: 00 hr 13 min 14 sec)
Heartbeat CPU 0 instructions: 160000034 cycles: 40877731 heartbeat IPC: 3.992 cumulative IPC: 3.914 (Simulation time: 00 hr 14 min 07 sec)
Heartbeat CPU 0 instructions: 170000034 cycles: 43377875 heartbeat IPC: 4 cumulative IPC: 3.919 (Simulation time: 00 hr 14 min 59 sec)
Heartbeat CPU 0 instructions: 180000034 cycles: 45878010 heartbeat IPC: 4 cumulative IPC: 3.923 (Simulation time: 00 hr 15 min 52 sec)
Heartbeat CPU 0 instructions: 190000034 cycles: 48382167 heartbeat IPC: 3.993 cumulative IPC: 3.927 (Simulation time: 00 hr 16 min 45 sec)
Warmup finished CPU 0 instructions: 200000001 cycles: 50892365 cumulative IPC: 3.93 (Simulation time: 00 hr 17 min 38 sec)
Warmup complete CPU 0 instructions: 200000001 cycles: 50892365 cumulative IPC: 3.93 (Simulation time: 00 hr 17 min 38 sec)
Heartbeat CPU 0 instructions: 200000036 cycles: 50892372 heartbeat IPC: 3.984 cumulative IPC: 5 (Simulation time: 00 hr 17 min 38 sec)
Heartbeat CPU 0 instructions: 210000037 cycles: 55878566 heartbeat IPC: 2.006 cumulative IPC: 2.006 (Simulation time: 00 hr 19 min 07 sec)
Heartbeat CPU 0 instructions: 220000040 cycles: 61465865 heartbeat IPC: 1.79 cumulative IPC: 1.892 (Simulation time: 00 hr 20 min 39 sec)
Heartbeat CPU 0 instructions: 230000040 cycles: 66462975 heartbeat IPC: 2.001 cumulative IPC: 1.927 (Simulation time: 00 hr 22 min 07 sec)
Heartbeat CPU 0 instructions: 240000040 cycles: 71605911 heartbeat IPC: 1.944 cumulative IPC: 1.931 (Simulation time: 00 hr 23 min 36 sec)
Heartbeat CPU 0 instructions: 250000043 cycles: 77640886 heartbeat IPC: 1.657 cumulative IPC: 1.869 (Simulation time: 00 hr 25 min 09 sec)
Heartbeat CPU 0 instructions: 260000044 cycles: 82657521 heartbeat IPC: 1.993 cumulative IPC: 1.889 (Simulation time: 00 hr 26 min 37 sec)
Heartbeat CPU 0 instructions: 270000046 cycles: 88441379 heartbeat IPC: 1.729 cumulative IPC: 1.864 (Simulation time: 00 hr 28 min 08 sec)
Heartbeat CPU 0 instructions: 280000046 cycles: 93422235 heartbeat IPC: 2.008 cumulative IPC: 1.881 (Simulation time: 00 hr 29 min 36 sec)
Heartbeat CPU 0 instructions: 290000049 cycles: 98520846 heartbeat IPC: 1.961 cumulative IPC: 1.89 (Simulation time: 00 hr 31 min 05 sec)
Heartbeat CPU 0 instructions: 300000051 cycles: 103959304 heartbeat IPC: 1.839 cumulative IPC: 1.884 (Simulation time: 00 hr 32 min 37 sec)
Heartbeat CPU 0 instructions: 310000052 cycles: 108924086 heartbeat IPC: 2.014 cumulative IPC: 1.896 (Simulation time: 00 hr 34 min 05 sec)
Heartbeat CPU 0 instructions: 320000054 cycles: 114144124 heartbeat IPC: 1.916 cumulative IPC: 1.897 (Simulation time: 00 hr 35 min 34 sec)
Heartbeat CPU 0 instructions: 330000055 cycles: 119635239 heartbeat IPC: 1.821 cumulative IPC: 1.891 (Simulation time: 00 hr 37 min 06 sec)
Heartbeat CPU 0 instructions: 340000057 cycles: 124592739 heartbeat IPC: 2.017 cumulative IPC: 1.9 (Simulation time: 00 hr 38 min 34 sec)
Heartbeat CPU 0 instructions: 350000057 cycles: 129825567 heartbeat IPC: 1.911 cumulative IPC: 1.9 (Simulation time: 00 hr 40 min 03 sec)
Heartbeat CPU 0 instructions: 360000059 cycles: 135312791 heartbeat IPC: 1.822 cumulative IPC: 1.895 (Simulation time: 00 hr 41 min 34 sec)
Heartbeat CPU 0 instructions: 370000059 cycles: 140279942 heartbeat IPC: 2.013 cumulative IPC: 1.902 (Simulation time: 00 hr 43 min 02 sec)
Heartbeat CPU 0 instructions: 380000062 cycles: 145575373 heartbeat IPC: 1.888 cumulative IPC: 1.901 (Simulation time: 00 hr 44 min 31 sec)
Heartbeat CPU 0 instructions: 390000065 cycles: 151361312 heartbeat IPC: 1.728 cumulative IPC: 1.891 (Simulation time: 00 hr 46 min 03 sec)
Heartbeat CPU 0 instructions: 400000066 cycles: 156326953 heartbeat IPC: 2.014 cumulative IPC: 1.897 (Simulation time: 00 hr 47 min 31 sec)
Heartbeat CPU 0 instructions: 410000067 cycles: 161542816 heartbeat IPC: 1.917 cumulative IPC: 1.898 (Simulation time: 00 hr 48 min 59 sec)
Heartbeat CPU 0 instructions: 420000070 cycles: 169000280 heartbeat IPC: 1.341 cumulative IPC: 1.863 (Simulation time: 00 hr 50 min 40 sec)
Heartbeat CPU 0 instructions: 430000074 cycles: 174008457 heartbeat IPC: 1.997 cumulative IPC: 1.868 (Simulation time: 00 hr 52 min 08 sec)
Heartbeat CPU 0 instructions: 440000075 cycles: 179300936 heartbeat IPC: 1.889 cumulative IPC: 1.869 (Simulation time: 00 hr 53 min 38 sec)
Heartbeat CPU 0 instructions: 450000078 cycles: 184789739 heartbeat IPC: 1.822 cumulative IPC: 1.867 (Simulation time: 00 hr 55 min 09 sec)
Heartbeat CPU 0 instructions: 460000082 cycles: 189770215 heartbeat IPC: 2.008 cumulative IPC: 1.872 (Simulation time: 00 hr 56 min 36 sec)
Heartbeat CPU 0 instructions: 470000082 cycles: 195294670 heartbeat IPC: 1.81 cumulative IPC: 1.87 (Simulation time: 00 hr 58 min 07 sec)
Heartbeat CPU 0 instructions: 480000084 cycles: 201711891 heartbeat IPC: 1.558 cumulative IPC: 1.857 (Simulation time: 00 hr 59 min 45 sec)
Heartbeat CPU 0 instructions: 490000084 cycles: 206754748 heartbeat IPC: 1.983 cumulative IPC: 1.861 (Simulation time: 01 hr 01 min 13 sec)
Heartbeat CPU 0 instructions: 500000086 cycles: 212335595 heartbeat IPC: 1.792 cumulative IPC: 1.858 (Simulation time: 01 hr 02 min 45 sec)
Heartbeat CPU 0 instructions: 510000086 cycles: 217307694 heartbeat IPC: 2.011 cumulative IPC: 1.863 (Simulation time: 01 hr 04 min 12 sec)
Heartbeat CPU 0 instructions: 520000086 cycles: 222773078 heartbeat IPC: 1.83 cumulative IPC: 1.862 (Simulation time: 01 hr 05 min 43 sec)
Heartbeat CPU 0 instructions: 530000089 cycles: 227992189 heartbeat IPC: 1.916 cumulative IPC: 1.863 (Simulation time: 01 hr 07 min 13 sec)
Heartbeat CPU 0 instructions: 540000092 cycles: 232995082 heartbeat IPC: 1.999 cumulative IPC: 1.867 (Simulation time: 01 hr 08 min 43 sec)
Heartbeat CPU 0 instructions: 550000092 cycles: 238214523 heartbeat IPC: 1.916 cumulative IPC: 1.868 (Simulation time: 01 hr 10 min 12 sec)
Heartbeat CPU 0 instructions: 560000094 cycles: 245715856 heartbeat IPC: 1.333 cumulative IPC: 1.848 (Simulation time: 01 hr 11 min 55 sec)
Heartbeat CPU 0 instructions: 570000098 cycles: 250993293 heartbeat IPC: 1.895 cumulative IPC: 1.849 (Simulation time: 01 hr 13 min 25 sec)
Heartbeat CPU 0 instructions: 580000100 cycles: 256885874 heartbeat IPC: 1.697 cumulative IPC: 1.845 (Simulation time: 01 hr 14 min 58 sec)
Heartbeat CPU 0 instructions: 590000100 cycles: 261852165 heartbeat IPC: 2.014 cumulative IPC: 1.849 (Simulation time: 01 hr 16 min 26 sec)
Heartbeat CPU 0 instructions: 600000104 cycles: 266899671 heartbeat IPC: 1.981 cumulative IPC: 1.852 (Simulation time: 01 hr 17 min 54 sec)
Heartbeat CPU 0 instructions: 610000106 cycles: 272348855 heartbeat IPC: 1.835 cumulative IPC: 1.851 (Simulation time: 01 hr 19 min 24 sec)
Heartbeat CPU 0 instructions: 620000110 cycles: 277323632 heartbeat IPC: 2.01 cumulative IPC: 1.855 (Simulation time: 01 hr 20 min 52 sec)
Heartbeat CPU 0 instructions: 630000113 cycles: 282368132 heartbeat IPC: 1.982 cumulative IPC: 1.858 (Simulation time: 01 hr 22 min 20 sec)
Heartbeat CPU 0 instructions: 640000114 cycles: 287817083 heartbeat IPC: 1.835 cumulative IPC: 1.857 (Simulation time: 01 hr 23 min 51 sec)
Heartbeat CPU 0 instructions: 650000118 cycles: 292798798 heartbeat IPC: 2.007 cumulative IPC: 1.86 (Simulation time: 01 hr 25 min 19 sec)
Heartbeat CPU 0 instructions: 660000119 cycles: 298014882 heartbeat IPC: 1.917 cumulative IPC: 1.861 (Simulation time: 01 hr 26 min 47 sec)
Heartbeat CPU 0 instructions: 670000122 cycles: 303565752 heartbeat IPC: 1.802 cumulative IPC: 1.86 (Simulation time: 01 hr 28 min 16 sec)
Heartbeat CPU 0 instructions: 680000125 cycles: 308579060 heartbeat IPC: 1.995 cumulative IPC: 1.863 (Simulation time: 01 hr 29 min 43 sec)
Heartbeat CPU 0 instructions: 690000125 cycles: 313769500 heartbeat IPC: 1.927 cumulative IPC: 1.864 (Simulation time: 01 hr 31 min 10 sec)
Heartbeat CPU 0 instructions: 700000125 cycles: 319191082 heartbeat IPC: 1.844 cumulative IPC: 1.864 (Simulation time: 01 hr 32 min 40 sec)
Heartbeat CPU 0 instructions: 710000129 cycles: 324187278 heartbeat IPC: 2.002 cumulative IPC: 1.866 (Simulation time: 01 hr 34 min 06 sec)
Heartbeat CPU 0 instructions: 720000130 cycles: 329519121 heartbeat IPC: 1.876 cumulative IPC: 1.866 (Simulation time: 01 hr 35 min 34 sec)
Heartbeat CPU 0 instructions: 730000132 cycles: 334978843 heartbeat IPC: 1.832 cumulative IPC: 1.866 (Simulation time: 01 hr 37 min 04 sec)
Heartbeat CPU 0 instructions: 740000133 cycles: 340283438 heartbeat IPC: 1.885 cumulative IPC: 1.866 (Simulation time: 01 hr 38 min 33 sec)
Heartbeat CPU 0 instructions: 750000133 cycles: 345924965 heartbeat IPC: 1.773 cumulative IPC: 1.864 (Simulation time: 01 hr 40 min 04 sec)
Heartbeat CPU 0 instructions: 760000134 cycles: 355707983 heartbeat IPC: 1.022 cumulative IPC: 1.837 (Simulation time: 01 hr 41 min 49 sec)
Heartbeat CPU 0 instructions: 770000138 cycles: 362786852 heartbeat IPC: 1.413 cumulative IPC: 1.828 (Simulation time: 01 hr 43 min 24 sec)
Heartbeat CPU 0 instructions: 780000138 cycles: 367777369 heartbeat IPC: 2.004 cumulative IPC: 1.83 (Simulation time: 01 hr 44 min 50 sec)
Heartbeat CPU 0 instructions: 790000141 cycles: 373199131 heartbeat IPC: 1.844 cumulative IPC: 1.831 (Simulation time: 01 hr 46 min 19 sec)
Heartbeat CPU 0 instructions: 800000144 cycles: 378369036 heartbeat IPC: 1.934 cumulative IPC: 1.832 (Simulation time: 01 hr 47 min 47 sec)
Heartbeat CPU 0 instructions: 810000144 cycles: 383413625 heartbeat IPC: 1.982 cumulative IPC: 1.834 (Simulation time: 01 hr 49 min 14 sec)
Heartbeat CPU 0 instructions: 820000146 cycles: 389100004 heartbeat IPC: 1.759 cumulative IPC: 1.833 (Simulation time: 01 hr 50 min 45 sec)
Heartbeat CPU 0 instructions: 830000146 cycles: 394363888 heartbeat IPC: 1.9 cumulative IPC: 1.834 (Simulation time: 01 hr 52 min 14 sec)
Heartbeat CPU 0 instructions: 840000150 cycles: 399684850 heartbeat IPC: 1.879 cumulative IPC: 1.835 (Simulation time: 01 hr 53 min 43 sec)
Heartbeat CPU 0 instructions: 850000151 cycles: 405452183 heartbeat IPC: 1.734 cumulative IPC: 1.833 (Simulation time: 01 hr 55 min 14 sec)
Heartbeat CPU 0 instructions: 860000152 cycles: 410411863 heartbeat IPC: 2.016 cumulative IPC: 1.836 (Simulation time: 01 hr 56 min 40 sec)
Heartbeat CPU 0 instructions: 870000156 cycles: 415585755 heartbeat IPC: 1.933 cumulative IPC: 1.837 (Simulation time: 01 hr 58 min 07 sec)
Heartbeat CPU 0 instructions: 880000156 cycles: 420900813 heartbeat IPC: 1.881 cumulative IPC: 1.838 (Simulation time: 01 hr 59 min 36 sec)
Heartbeat CPU 0 instructions: 890000156 cycles: 425906711 heartbeat IPC: 1.998 cumulative IPC: 1.84 (Simulation time: 02 hr 01 min 03 sec)
Heartbeat CPU 0 instructions: 900000160 cycles: 431322146 heartbeat IPC: 1.847 cumulative IPC: 1.84 (Simulation time: 02 hr 02 min 31 sec)
Heartbeat CPU 0 instructions: 910000160 cycles: 436615573 heartbeat IPC: 1.889 cumulative IPC: 1.841 (Simulation time: 02 hr 04 min 00 sec)
Heartbeat CPU 0 instructions: 920000160 cycles: 441625923 heartbeat IPC: 1.996 cumulative IPC: 1.843 (Simulation time: 02 hr 05 min 27 sec)
Heartbeat CPU 0 instructions: 930000161 cycles: 447020819 heartbeat IPC: 1.854 cumulative IPC: 1.843 (Simulation time: 02 hr 06 min 55 sec)
Heartbeat CPU 0 instructions: 940000161 cycles: 452287324 heartbeat IPC: 1.899 cumulative IPC: 1.844 (Simulation time: 02 hr 08 min 24 sec)
Heartbeat CPU 0 instructions: 950000163 cycles: 457340974 heartbeat IPC: 1.979 cumulative IPC: 1.845 (Simulation time: 02 hr 09 min 51 sec)
Heartbeat CPU 0 instructions: 960000166 cycles: 462801652 heartbeat IPC: 1.831 cumulative IPC: 1.845 (Simulation time: 02 hr 11 min 20 sec)
Heartbeat CPU 0 instructions: 970000170 cycles: 468085472 heartbeat IPC: 1.893 cumulative IPC: 1.846 (Simulation time: 02 hr 12 min 49 sec)
Heartbeat CPU 0 instructions: 980000171 cycles: 473126407 heartbeat IPC: 1.984 cumulative IPC: 1.847 (Simulation time: 02 hr 14 min 17 sec)
Heartbeat CPU 0 instructions: 990000173 cycles: 478769145 heartbeat IPC: 1.772 cumulative IPC: 1.846 (Simulation time: 02 hr 15 min 49 sec)
Heartbeat CPU 0 instructions: 1000000174 cycles: 483814547 heartbeat IPC: 1.982 cumulative IPC: 1.848 (Simulation time: 02 hr 17 min 17 sec)
Heartbeat CPU 0 instructions: 1010000178 cycles: 488830801 heartbeat IPC: 1.994 cumulative IPC: 1.85 (Simulation time: 02 hr 18 min 45 sec)
Heartbeat CPU 0 instructions: 1020000179 cycles: 494301784 heartbeat IPC: 1.828 cumulative IPC: 1.849 (Simulation time: 02 hr 20 min 15 sec)
Heartbeat CPU 0 instructions: 1030000182 cycles: 499308958 heartbeat IPC: 1.997 cumulative IPC: 1.851 (Simulation time: 02 hr 21 min 42 sec)
Heartbeat CPU 0 instructions: 1040000183 cycles: 504349177 heartbeat IPC: 1.984 cumulative IPC: 1.852 (Simulation time: 02 hr 23 min 09 sec)
Heartbeat CPU 0 instructions: 1050000184 cycles: 509874788 heartbeat IPC: 1.81 cumulative IPC: 1.852 (Simulation time: 02 hr 24 min 39 sec)
Heartbeat CPU 0 instructions: 1060000185 cycles: 514879315 heartbeat IPC: 1.998 cumulative IPC: 1.854 (Simulation time: 02 hr 26 min 06 sec)
Heartbeat CPU 0 instructions: 1070000185 cycles: 519907377 heartbeat IPC: 1.989 cumulative IPC: 1.855 (Simulation time: 02 hr 27 min 33 sec)
Heartbeat CPU 0 instructions: 1080000189 cycles: 525495925 heartbeat IPC: 1.789 cumulative IPC: 1.854 (Simulation time: 02 hr 29 min 03 sec)
Heartbeat CPU 0 instructions: 1090000193 cycles: 530516280 heartbeat IPC: 1.992 cumulative IPC: 1.856 (Simulation time: 02 hr 30 min 31 sec)
Heartbeat CPU 0 instructions: 1100000194 cycles: 535556924 heartbeat IPC: 1.984 cumulative IPC: 1.857 (Simulation time: 02 hr 31 min 58 sec)
Heartbeat CPU 0 instructions: 1110000195 cycles: 541237099 heartbeat IPC: 1.761 cumulative IPC: 1.856 (Simulation time: 02 hr 33 min 29 sec)
Heartbeat CPU 0 instructions: 1120000195 cycles: 546228943 heartbeat IPC: 2.003 cumulative IPC: 1.857 (Simulation time: 02 hr 34 min 56 sec)
Heartbeat CPU 0 instructions: 1130000197 cycles: 551349983 heartbeat IPC: 1.953 cumulative IPC: 1.858 (Simulation time: 02 hr 36 min 23 sec)
Heartbeat CPU 0 instructions: 1140000199 cycles: 556759586 heartbeat IPC: 1.849 cumulative IPC: 1.858 (Simulation time: 02 hr 37 min 53 sec)
Heartbeat CPU 0 instructions: 1150000200 cycles: 561736557 heartbeat IPC: 2.009 cumulative IPC: 1.86 (Simulation time: 02 hr 39 min 20 sec)
Heartbeat CPU 0 instructions: 1160000203 cycles: 566831694 heartbeat IPC: 1.963 cumulative IPC: 1.861 (Simulation time: 02 hr 40 min 47 sec)
Heartbeat CPU 0 instructions: 1170000205 cycles: 572308945 heartbeat IPC: 1.826 cumulative IPC: 1.86 (Simulation time: 02 hr 42 min 17 sec)
Heartbeat CPU 0 instructions: 1180000207 cycles: 577288475 heartbeat IPC: 2.008 cumulative IPC: 1.862 (Simulation time: 02 hr 43 min 44 sec)
Heartbeat CPU 0 instructions: 1190000207 cycles: 582567758 heartbeat IPC: 1.894 cumulative IPC: 1.862 (Simulation time: 02 hr 45 min 13 sec)
Simulation finished CPU 0 instructions: 1000000003 cycles: 537059445 cumulative IPC: 1.862 (Simulation time: 02 hr 46 min 43 sec)
Simulation complete CPU 0 instructions: 1000000003 cycles: 537059445 cumulative IPC: 1.862 (Simulation time: 02 hr 46 min 43 sec)

ChampSim completed all CPUs

=== Simulation ===
CPU 0 runs /home/grads/b/bhavishya_k_s/ecen676/ChampSim/dpc3_traces/602.gcc_s-734B.champsimtrace.xz

Region of Interest Statistics

CPU 0 cumulative IPC: 1.862 instructions: 1000000003 cycles: 537059445
CPU 0 Branch Prediction Accuracy: 99.76% MPKI: 0.5706 Average ROB Occupancy at Mispredict: 41.04
Branch type MPKI
BRANCH_DIRECT_JUMP: 0.104
BRANCH_INDIRECT: 0
BRANCH_CONDITIONAL: 0.3916
BRANCH_DIRECT_CALL: 0.075
BRANCH_INDIRECT_CALL: 2e-06
BRANCH_RETURN: 1e-06

cpu0->cpu0_STLB TOTAL        ACCESS:     444282 HIT:     226186 MISS:     218096 MSHR_MERGE:          0
cpu0->cpu0_STLB LOAD         ACCESS:     444282 HIT:     226186 MISS:     218096 MSHR_MERGE:          0
cpu0->cpu0_STLB RFO          ACCESS:          0 HIT:          0 MISS:          0 MSHR_MERGE:          0
cpu0->cpu0_STLB PREFETCH     ACCESS:          0 HIT:          0 MISS:          0 MSHR_MERGE:          0
cpu0->cpu0_STLB WRITE        ACCESS:          0 HIT:          0 MISS:          0 MSHR_MERGE:          0
cpu0->cpu0_STLB TRANSLATION  ACCESS:          0 HIT:          0 MISS:          0 MSHR_MERGE:          0
cpu0->cpu0_STLB PREFETCH REQUESTED:          0 ISSUED:          0 USEFUL:          0 USELESS:          0
cpu0->cpu0_STLB AVERAGE MISS LATENCY: 115.8 cycles
cpu0->cpu0_L2C TOTAL        ACCESS:  203292175 HIT:   89348159 MISS:  113944016 MSHR_MERGE:     228223
cpu0->cpu0_L2C LOAD         ACCESS:   16489808 HIT:   13481422 MISS:    3008386 MSHR_MERGE:      84311
cpu0->cpu0_L2C RFO          ACCESS:      43214 HIT:      35578 MISS:       7636 MSHR_MERGE:          5
cpu0->cpu0_L2C PREFETCH     ACCESS:  186440105 HIT:   75618606 MISS:  110821499 MSHR_MERGE:     143907
cpu0->cpu0_L2C WRITE        ACCESS:     200573 HIT:     200562 MISS:         11 MSHR_MERGE:          0
cpu0->cpu0_L2C TRANSLATION  ACCESS:     118475 HIT:      11991 MISS:     106484 MSHR_MERGE:          0
cpu0->cpu0_L2C PREFETCH REQUESTED:  244039146 ISSUED:  186440111 USEFUL:    5322540 USELESS:      26888
cpu0->cpu0_L2C AVERAGE MISS LATENCY: 47.63 cycles
cpu0->cpu0_L1I TOTAL        ACCESS:  208803655 HIT:  208803654 MISS:          1 MSHR_MERGE:          0
cpu0->cpu0_L1I LOAD         ACCESS:  208803655 HIT:  208803654 MISS:          1 MSHR_MERGE:          0
cpu0->cpu0_L1I RFO          ACCESS:          0 HIT:          0 MISS:          0 MSHR_MERGE:          0
cpu0->cpu0_L1I PREFETCH     ACCESS:          0 HIT:          0 MISS:          0 MSHR_MERGE:          0
cpu0->cpu0_L1I WRITE        ACCESS:          0 HIT:          0 MISS:          0 MSHR_MERGE:          0
cpu0->cpu0_L1I TRANSLATION  ACCESS:          0 HIT:          0 MISS:          0 MSHR_MERGE:          0
cpu0->cpu0_L1I PREFETCH REQUESTED:          0 ISSUED:          0 USEFUL:          0 USELESS:          0
cpu0->cpu0_L1I AVERAGE MISS LATENCY: 736 cycles
cpu0->cpu0_L1D TOTAL        ACCESS:  247319051 HIT:  214037571 MISS:   33281480 MSHR_MERGE:   16627817
cpu0->cpu0_L1D LOAD         ACCESS:  146978285 HIT:  113999570 MISS:   32978715 MSHR_MERGE:   16488908
cpu0->cpu0_L1D RFO          ACCESS:          0 HIT:          0 MISS:          0 MSHR_MERGE:          0
cpu0->cpu0_L1D PREFETCH     ACCESS:          0 HIT:          0 MISS:          0 MSHR_MERGE:          0
cpu0->cpu0_L1D WRITE        ACCESS:  100105539 HIT:   99921258 MISS:     184281 MSHR_MERGE:     138900
cpu0->cpu0_L1D TRANSLATION  ACCESS:     235227 HIT:     116743 MISS:     118484 MSHR_MERGE:          9
cpu0->cpu0_L1D PREFETCH REQUESTED:          0 ISSUED:          0 USEFUL:          0 USELESS:          0
cpu0->cpu0_L1D AVERAGE MISS LATENCY: 17.13 cycles
cpu0->cpu0_ITLB TOTAL        ACCESS:  174657458 HIT:  174657458 MISS:          0 MSHR_MERGE:          0
cpu0->cpu0_ITLB LOAD         ACCESS:  174657458 HIT:  174657458 MISS:          0 MSHR_MERGE:          0
cpu0->cpu0_ITLB RFO          ACCESS:          0 HIT:          0 MISS:          0 MSHR_MERGE:          0
cpu0->cpu0_ITLB PREFETCH     ACCESS:          0 HIT:          0 MISS:          0 MSHR_MERGE:          0
cpu0->cpu0_ITLB WRITE        ACCESS:          0 HIT:          0 MISS:          0 MSHR_MERGE:          0
cpu0->cpu0_ITLB TRANSLATION  ACCESS:          0 HIT:          0 MISS:          0 MSHR_MERGE:          0
cpu0->cpu0_ITLB PREFETCH REQUESTED:          0 ISSUED:          0 USEFUL:          0 USELESS:          0
cpu0->cpu0_ITLB AVERAGE MISS LATENCY: - cycles
cpu0->cpu0_DTLB TOTAL        ACCESS:  224878950 HIT:  224126008 MISS:     752942 MSHR_MERGE:     308660
cpu0->cpu0_DTLB LOAD         ACCESS:  224878950 HIT:  224126008 MISS:     752942 MSHR_MERGE:     308660
cpu0->cpu0_DTLB RFO          ACCESS:          0 HIT:          0 MISS:          0 MSHR_MERGE:          0
cpu0->cpu0_DTLB PREFETCH     ACCESS:          0 HIT:          0 MISS:          0 MSHR_MERGE:          0
cpu0->cpu0_DTLB WRITE        ACCESS:          0 HIT:          0 MISS:          0 MSHR_MERGE:          0
cpu0->cpu0_DTLB TRANSLATION  ACCESS:          0 HIT:          0 MISS:          0 MSHR_MERGE:          0
cpu0->cpu0_DTLB PREFETCH REQUESTED:          0 ISSUED:          0 USEFUL:          0 USELESS:          0
cpu0->cpu0_DTLB AVERAGE MISS LATENCY: 62.33 cycles
cpu0->LLC TOTAL        ACCESS:  113789024 HIT:   70725284 MISS:   43063740 MSHR_MERGE:   34148496
cpu0->LLC LOAD         ACCESS:    2924075 HIT:    2523793 MISS:     400282 MSHR_MERGE:      32623
cpu0->LLC RFO          ACCESS:       7631 HIT:       1063 MISS:       6568 MSHR_MERGE:         85
cpu0->LLC PREFETCH     ACCESS:  110671319 HIT:   68130236 MISS:   42541083 MSHR_MERGE:   34115788
cpu0->LLC WRITE        ACCESS:      79515 HIT:      61391 MISS:      18124 MSHR_MERGE:          0
cpu0->LLC TRANSLATION  ACCESS:     106484 HIT:       8801 MISS:      97683 MSHR_MERGE:          0
cpu0->LLC PREFETCH REQUESTED:          0 ISSUED:          0 USEFUL:          0 USELESS:          0
cpu0->LLC AVERAGE MISS LATENCY: 186.9 cycles

DRAM Statistics

Channel 0 RQ ROW_BUFFER_HIT:    2950525
  ROW_BUFFER_MISS:    5946593
  AVG DBUS CONGESTED CYCLE: 7.105
Channel 0 WQ ROW_BUFFER_HIT:      26644
  ROW_BUFFER_MISS:      52072
  FULL:          0
Channel 0 REFRESHES ISSUED:      44754
