[VMEM] WARNING: physical memory size is smaller than virtual memory size.
WARNING: option --warmup_instructions is deprecated. Use --warmup-instructions instead.
WARNING: option --simulation_instructions is deprecated. Use --simulation-instructions instead.

*** ChampSim Multicore Out-of-Order Simulator ***
Warmup Instructions: 200000000
Simulation Instructions: 1000000000
Number of CPUs: 1
Page size: 4096

Initialize SIGNATURE TABLE
ST_SET: 1
ST_WAY: 256
ST_TAG_BIT: 16

Initialize PATTERN TABLE
PT_SET: 512
PT_WAY: 4
SIG_DELTA_BIT: 7
C_SIG_BIT: 4
C_DELTA_BIT: 4

Initialize PREFETCH FILTER
FILTER_SET: 1024
Off-chip DRAM Size: 16 GiB Channels: 1 Width: 64-bit Data Rate: 3205 MT/s
Heartbeat CPU 0 instructions: 10000001 cycles: 2943337 heartbeat IPC: 3.398 cumulative IPC: 3.398 (Simulation time: 00 hr 01 min 15 sec)
Heartbeat CPU 0 instructions: 20000002 cycles: 5895981 heartbeat IPC: 3.387 cumulative IPC: 3.392 (Simulation time: 00 hr 02 min 29 sec)
Heartbeat CPU 0 instructions: 30000002 cycles: 8836086 heartbeat IPC: 3.401 cumulative IPC: 3.395 (Simulation time: 00 hr 03 min 42 sec)
Heartbeat CPU 0 instructions: 40000003 cycles: 11776703 heartbeat IPC: 3.401 cumulative IPC: 3.397 (Simulation time: 00 hr 04 min 56 sec)
Heartbeat CPU 0 instructions: 50000007 cycles: 14720501 heartbeat IPC: 3.397 cumulative IPC: 3.397 (Simulation time: 00 hr 06 min 10 sec)
Heartbeat CPU 0 instructions: 60000011 cycles: 17562313 heartbeat IPC: 3.519 cumulative IPC: 3.416 (Simulation time: 00 hr 07 min 25 sec)
Heartbeat CPU 0 instructions: 70000011 cycles: 20369995 heartbeat IPC: 3.562 cumulative IPC: 3.436 (Simulation time: 00 hr 08 min 40 sec)
Heartbeat CPU 0 instructions: 80000011 cycles: 23178082 heartbeat IPC: 3.561 cumulative IPC: 3.452 (Simulation time: 00 hr 09 min 57 sec)
Heartbeat CPU 0 instructions: 90000011 cycles: 25987350 heartbeat IPC: 3.56 cumulative IPC: 3.463 (Simulation time: 00 hr 11 min 12 sec)
Heartbeat CPU 0 instructions: 100000013 cycles: 28795677 heartbeat IPC: 3.561 cumulative IPC: 3.473 (Simulation time: 00 hr 12 min 28 sec)
Heartbeat CPU 0 instructions: 110000015 cycles: 31604986 heartbeat IPC: 3.56 cumulative IPC: 3.48 (Simulation time: 00 hr 13 min 44 sec)
Heartbeat CPU 0 instructions: 120000017 cycles: 34411955 heartbeat IPC: 3.563 cumulative IPC: 3.487 (Simulation time: 00 hr 14 min 59 sec)
Heartbeat CPU 0 instructions: 130000019 cycles: 37222517 heartbeat IPC: 3.558 cumulative IPC: 3.493 (Simulation time: 00 hr 16 min 14 sec)
Heartbeat CPU 0 instructions: 140000022 cycles: 40032458 heartbeat IPC: 3.559 cumulative IPC: 3.497 (Simulation time: 00 hr 17 min 30 sec)
Heartbeat CPU 0 instructions: 150000024 cycles: 42819611 heartbeat IPC: 3.588 cumulative IPC: 3.503 (Simulation time: 00 hr 18 min 45 sec)
Heartbeat CPU 0 instructions: 160000027 cycles: 45571358 heartbeat IPC: 3.634 cumulative IPC: 3.511 (Simulation time: 00 hr 20 min 00 sec)
Heartbeat CPU 0 instructions: 170000030 cycles: 48323344 heartbeat IPC: 3.634 cumulative IPC: 3.518 (Simulation time: 00 hr 21 min 14 sec)
Heartbeat CPU 0 instructions: 180000034 cycles: 51074610 heartbeat IPC: 3.635 cumulative IPC: 3.524 (Simulation time: 00 hr 22 min 29 sec)
Heartbeat CPU 0 instructions: 190000037 cycles: 53825847 heartbeat IPC: 3.635 cumulative IPC: 3.53 (Simulation time: 00 hr 23 min 44 sec)
Warmup finished CPU 0 instructions: 200000002 cycles: 56578033 cumulative IPC: 3.535 (Simulation time: 00 hr 24 min 58 sec)
Warmup complete CPU 0 instructions: 200000002 cycles: 56578033 cumulative IPC: 3.535 (Simulation time: 00 hr 24 min 58 sec)
Heartbeat CPU 0 instructions: 200000037 cycles: 56578040 heartbeat IPC: 3.633 cumulative IPC: 5 (Simulation time: 00 hr 24 min 58 sec)
Heartbeat CPU 0 instructions: 210000040 cycles: 61852269 heartbeat IPC: 1.896 cumulative IPC: 1.896 (Simulation time: 00 hr 26 min 41 sec)
Heartbeat CPU 0 instructions: 220000040 cycles: 67071131 heartbeat IPC: 1.916 cumulative IPC: 1.906 (Simulation time: 00 hr 28 min 23 sec)
Heartbeat CPU 0 instructions: 230000044 cycles: 72293875 heartbeat IPC: 1.915 cumulative IPC: 1.909 (Simulation time: 00 hr 30 min 06 sec)
Heartbeat CPU 0 instructions: 240000044 cycles: 77621631 heartbeat IPC: 1.877 cumulative IPC: 1.901 (Simulation time: 00 hr 31 min 50 sec)
Heartbeat CPU 0 instructions: 250000045 cycles: 82829889 heartbeat IPC: 1.92 cumulative IPC: 1.905 (Simulation time: 00 hr 33 min 33 sec)
Heartbeat CPU 0 instructions: 260000048 cycles: 88010516 heartbeat IPC: 1.93 cumulative IPC: 1.909 (Simulation time: 00 hr 35 min 14 sec)
Heartbeat CPU 0 instructions: 270000048 cycles: 93241620 heartbeat IPC: 1.912 cumulative IPC: 1.909 (Simulation time: 00 hr 36 min 56 sec)
Heartbeat CPU 0 instructions: 280000051 cycles: 98471962 heartbeat IPC: 1.912 cumulative IPC: 1.91 (Simulation time: 00 hr 38 min 38 sec)
Heartbeat CPU 0 instructions: 290000052 cycles: 103677655 heartbeat IPC: 1.921 cumulative IPC: 1.911 (Simulation time: 00 hr 40 min 20 sec)
Heartbeat CPU 0 instructions: 300000052 cycles: 108898890 heartbeat IPC: 1.915 cumulative IPC: 1.911 (Simulation time: 00 hr 42 min 02 sec)
Heartbeat CPU 0 instructions: 310000052 cycles: 114120590 heartbeat IPC: 1.915 cumulative IPC: 1.912 (Simulation time: 00 hr 43 min 44 sec)
Heartbeat CPU 0 instructions: 320000053 cycles: 119348412 heartbeat IPC: 1.913 cumulative IPC: 1.912 (Simulation time: 00 hr 45 min 26 sec)
Heartbeat CPU 0 instructions: 330000054 cycles: 124556196 heartbeat IPC: 1.92 cumulative IPC: 1.912 (Simulation time: 00 hr 47 min 08 sec)
Heartbeat CPU 0 instructions: 340000056 cycles: 129908692 heartbeat IPC: 1.868 cumulative IPC: 1.909 (Simulation time: 00 hr 48 min 52 sec)
Heartbeat CPU 0 instructions: 350000057 cycles: 135140609 heartbeat IPC: 1.911 cumulative IPC: 1.909 (Simulation time: 00 hr 50 min 34 sec)
Heartbeat CPU 0 instructions: 360000061 cycles: 140356182 heartbeat IPC: 1.917 cumulative IPC: 1.91 (Simulation time: 00 hr 52 min 16 sec)
Heartbeat CPU 0 instructions: 370000061 cycles: 145551629 heartbeat IPC: 1.925 cumulative IPC: 1.911 (Simulation time: 00 hr 53 min 58 sec)
Heartbeat CPU 0 instructions: 380000062 cycles: 150775257 heartbeat IPC: 1.914 cumulative IPC: 1.911 (Simulation time: 00 hr 55 min 40 sec)
Heartbeat CPU 0 instructions: 390000062 cycles: 155961990 heartbeat IPC: 1.928 cumulative IPC: 1.912 (Simulation time: 00 hr 57 min 22 sec)
Heartbeat CPU 0 instructions: 400000062 cycles: 161167067 heartbeat IPC: 1.921 cumulative IPC: 1.912 (Simulation time: 00 hr 59 min 05 sec)
Heartbeat CPU 0 instructions: 410000064 cycles: 166392309 heartbeat IPC: 1.914 cumulative IPC: 1.912 (Simulation time: 01 hr 00 min 47 sec)
Heartbeat CPU 0 instructions: 420000066 cycles: 171619448 heartbeat IPC: 1.913 cumulative IPC: 1.912 (Simulation time: 01 hr 02 min 30 sec)
Heartbeat CPU 0 instructions: 430000067 cycles: 176933164 heartbeat IPC: 1.882 cumulative IPC: 1.911 (Simulation time: 01 hr 04 min 13 sec)
Heartbeat CPU 0 instructions: 440000067 cycles: 182160493 heartbeat IPC: 1.913 cumulative IPC: 1.911 (Simulation time: 01 hr 05 min 56 sec)
Heartbeat CPU 0 instructions: 450000069 cycles: 187355046 heartbeat IPC: 1.925 cumulative IPC: 1.912 (Simulation time: 01 hr 07 min 37 sec)
Heartbeat CPU 0 instructions: 460000072 cycles: 192557273 heartbeat IPC: 1.922 cumulative IPC: 1.912 (Simulation time: 01 hr 09 min 19 sec)
Heartbeat CPU 0 instructions: 470000075 cycles: 197796228 heartbeat IPC: 1.909 cumulative IPC: 1.912 (Simulation time: 01 hr 11 min 01 sec)
Heartbeat CPU 0 instructions: 480000079 cycles: 203025134 heartbeat IPC: 1.912 cumulative IPC: 1.912 (Simulation time: 01 hr 12 min 43 sec)
Heartbeat CPU 0 instructions: 490000081 cycles: 208236132 heartbeat IPC: 1.919 cumulative IPC: 1.912 (Simulation time: 01 hr 14 min 24 sec)
Heartbeat CPU 0 instructions: 500000081 cycles: 213450480 heartbeat IPC: 1.918 cumulative IPC: 1.912 (Simulation time: 01 hr 16 min 06 sec)
Heartbeat CPU 0 instructions: 510000083 cycles: 218660563 heartbeat IPC: 1.919 cumulative IPC: 1.913 (Simulation time: 01 hr 17 min 48 sec)
Heartbeat CPU 0 instructions: 520000083 cycles: 223989940 heartbeat IPC: 1.876 cumulative IPC: 1.911 (Simulation time: 01 hr 19 min 31 sec)
Heartbeat CPU 0 instructions: 530000084 cycles: 229220352 heartbeat IPC: 1.912 cumulative IPC: 1.911 (Simulation time: 01 hr 21 min 13 sec)
Heartbeat CPU 0 instructions: 540000084 cycles: 234422146 heartbeat IPC: 1.922 cumulative IPC: 1.912 (Simulation time: 01 hr 22 min 55 sec)
Heartbeat CPU 0 instructions: 550000086 cycles: 239622248 heartbeat IPC: 1.923 cumulative IPC: 1.912 (Simulation time: 01 hr 24 min 37 sec)
Heartbeat CPU 0 instructions: 560000086 cycles: 244834998 heartbeat IPC: 1.918 cumulative IPC: 1.912 (Simulation time: 01 hr 26 min 19 sec)
Heartbeat CPU 0 instructions: 570000087 cycles: 250035677 heartbeat IPC: 1.923 cumulative IPC: 1.913 (Simulation time: 01 hr 28 min 00 sec)
Heartbeat CPU 0 instructions: 580000087 cycles: 255231816 heartbeat IPC: 1.925 cumulative IPC: 1.913 (Simulation time: 01 hr 29 min 42 sec)
Heartbeat CPU 0 instructions: 590000088 cycles: 260423561 heartbeat IPC: 1.926 cumulative IPC: 1.913 (Simulation time: 01 hr 31 min 24 sec)
Heartbeat CPU 0 instructions: 600000090 cycles: 265671970 heartbeat IPC: 1.905 cumulative IPC: 1.913 (Simulation time: 01 hr 33 min 06 sec)
Heartbeat CPU 0 instructions: 610000093 cycles: 270862533 heartbeat IPC: 1.927 cumulative IPC: 1.913 (Simulation time: 01 hr 34 min 48 sec)
Heartbeat CPU 0 instructions: 620000094 cycles: 276144360 heartbeat IPC: 1.893 cumulative IPC: 1.913 (Simulation time: 01 hr 36 min 31 sec)
Heartbeat CPU 0 instructions: 630000096 cycles: 281371836 heartbeat IPC: 1.913 cumulative IPC: 1.913 (Simulation time: 01 hr 38 min 13 sec)
Heartbeat CPU 0 instructions: 640000100 cycles: 286599554 heartbeat IPC: 1.913 cumulative IPC: 1.913 (Simulation time: 01 hr 39 min 56 sec)
Heartbeat CPU 0 instructions: 650000102 cycles: 291837439 heartbeat IPC: 1.909 cumulative IPC: 1.913 (Simulation time: 01 hr 41 min 38 sec)
Heartbeat CPU 0 instructions: 660000106 cycles: 297028301 heartbeat IPC: 1.926 cumulative IPC: 1.913 (Simulation time: 01 hr 43 min 20 sec)
Heartbeat CPU 0 instructions: 670000110 cycles: 302280963 heartbeat IPC: 1.904 cumulative IPC: 1.913 (Simulation time: 01 hr 45 min 02 sec)
Heartbeat CPU 0 instructions: 680000114 cycles: 307522371 heartbeat IPC: 1.908 cumulative IPC: 1.913 (Simulation time: 01 hr 46 min 45 sec)
Heartbeat CPU 0 instructions: 690000117 cycles: 312729775 heartbeat IPC: 1.92 cumulative IPC: 1.913 (Simulation time: 01 hr 48 min 27 sec)
Heartbeat CPU 0 instructions: 700000118 cycles: 317968527 heartbeat IPC: 1.909 cumulative IPC: 1.913 (Simulation time: 01 hr 50 min 10 sec)
Heartbeat CPU 0 instructions: 710000119 cycles: 323298984 heartbeat IPC: 1.876 cumulative IPC: 1.912 (Simulation time: 01 hr 51 min 54 sec)
Heartbeat CPU 0 instructions: 720000120 cycles: 328537185 heartbeat IPC: 1.909 cumulative IPC: 1.912 (Simulation time: 01 hr 53 min 36 sec)
Heartbeat CPU 0 instructions: 730000123 cycles: 333762746 heartbeat IPC: 1.914 cumulative IPC: 1.912 (Simulation time: 01 hr 55 min 18 sec)
Heartbeat CPU 0 instructions: 740000124 cycles: 338976715 heartbeat IPC: 1.918 cumulative IPC: 1.912 (Simulation time: 01 hr 56 min 59 sec)
Heartbeat CPU 0 instructions: 750000124 cycles: 344177549 heartbeat IPC: 1.923 cumulative IPC: 1.912 (Simulation time: 01 hr 58 min 41 sec)
Heartbeat CPU 0 instructions: 760000125 cycles: 349405827 heartbeat IPC: 1.913 cumulative IPC: 1.912 (Simulation time: 02 hr 00 min 24 sec)
Heartbeat CPU 0 instructions: 770000129 cycles: 354616157 heartbeat IPC: 1.919 cumulative IPC: 1.913 (Simulation time: 02 hr 02 min 06 sec)
Heartbeat CPU 0 instructions: 780000129 cycles: 359837956 heartbeat IPC: 1.915 cumulative IPC: 1.913 (Simulation time: 02 hr 03 min 49 sec)
Heartbeat CPU 0 instructions: 790000129 cycles: 365063362 heartbeat IPC: 1.914 cumulative IPC: 1.913 (Simulation time: 02 hr 05 min 32 sec)
Heartbeat CPU 0 instructions: 800000132 cycles: 370403808 heartbeat IPC: 1.873 cumulative IPC: 1.912 (Simulation time: 02 hr 07 min 16 sec)
Heartbeat CPU 0 instructions: 810000136 cycles: 375650204 heartbeat IPC: 1.906 cumulative IPC: 1.912 (Simulation time: 02 hr 08 min 56 sec)
Heartbeat CPU 0 instructions: 820000138 cycles: 380843677 heartbeat IPC: 1.925 cumulative IPC: 1.912 (Simulation time: 02 hr 10 min 35 sec)
Heartbeat CPU 0 instructions: 830000140 cycles: 386071210 heartbeat IPC: 1.913 cumulative IPC: 1.912 (Simulation time: 02 hr 12 min 14 sec)
Heartbeat CPU 0 instructions: 840000140 cycles: 391246321 heartbeat IPC: 1.932 cumulative IPC: 1.912 (Simulation time: 02 hr 13 min 53 sec)
Heartbeat CPU 0 instructions: 850000140 cycles: 396440342 heartbeat IPC: 1.925 cumulative IPC: 1.913 (Simulation time: 02 hr 15 min 32 sec)
Heartbeat CPU 0 instructions: 860000143 cycles: 401654609 heartbeat IPC: 1.918 cumulative IPC: 1.913 (Simulation time: 02 hr 17 min 11 sec)
Heartbeat CPU 0 instructions: 870000145 cycles: 406899583 heartbeat IPC: 1.907 cumulative IPC: 1.913 (Simulation time: 02 hr 18 min 50 sec)
Heartbeat CPU 0 instructions: 880000145 cycles: 412109467 heartbeat IPC: 1.919 cumulative IPC: 1.913 (Simulation time: 02 hr 20 min 29 sec)
Heartbeat CPU 0 instructions: 890000148 cycles: 417342806 heartbeat IPC: 1.911 cumulative IPC: 1.913 (Simulation time: 02 hr 22 min 09 sec)
Heartbeat CPU 0 instructions: 900000148 cycles: 422660288 heartbeat IPC: 1.881 cumulative IPC: 1.912 (Simulation time: 02 hr 23 min 49 sec)
Heartbeat CPU 0 instructions: 910000148 cycles: 427866148 heartbeat IPC: 1.921 cumulative IPC: 1.912 (Simulation time: 02 hr 25 min 28 sec)
Heartbeat CPU 0 instructions: 920000149 cycles: 433092494 heartbeat IPC: 1.913 cumulative IPC: 1.912 (Simulation time: 02 hr 27 min 07 sec)
Heartbeat CPU 0 instructions: 930000150 cycles: 438321793 heartbeat IPC: 1.912 cumulative IPC: 1.912 (Simulation time: 02 hr 28 min 46 sec)
Heartbeat CPU 0 instructions: 940000153 cycles: 443555452 heartbeat IPC: 1.911 cumulative IPC: 1.912 (Simulation time: 02 hr 30 min 26 sec)
Heartbeat CPU 0 instructions: 950000154 cycles: 448784117 heartbeat IPC: 1.913 cumulative IPC: 1.912 (Simulation time: 02 hr 32 min 05 sec)
Heartbeat CPU 0 instructions: 960000156 cycles: 454010095 heartbeat IPC: 1.914 cumulative IPC: 1.912 (Simulation time: 02 hr 33 min 44 sec)
Heartbeat CPU 0 instructions: 970000157 cycles: 459223874 heartbeat IPC: 1.918 cumulative IPC: 1.912 (Simulation time: 02 hr 35 min 22 sec)
Heartbeat CPU 0 instructions: 980000158 cycles: 464450068 heartbeat IPC: 1.913 cumulative IPC: 1.912 (Simulation time: 02 hr 37 min 02 sec)
Heartbeat CPU 0 instructions: 990000158 cycles: 469770633 heartbeat IPC: 1.879 cumulative IPC: 1.912 (Simulation time: 02 hr 38 min 42 sec)
Heartbeat CPU 0 instructions: 1000000159 cycles: 474968244 heartbeat IPC: 1.924 cumulative IPC: 1.912 (Simulation time: 02 hr 40 min 21 sec)
Heartbeat CPU 0 instructions: 1010000159 cycles: 480201573 heartbeat IPC: 1.911 cumulative IPC: 1.912 (Simulation time: 02 hr 42 min 00 sec)
Heartbeat CPU 0 instructions: 1020000160 cycles: 485446556 heartbeat IPC: 1.907 cumulative IPC: 1.912 (Simulation time: 02 hr 43 min 39 sec)
Heartbeat CPU 0 instructions: 1030000162 cycles: 490644722 heartbeat IPC: 1.924 cumulative IPC: 1.912 (Simulation time: 02 hr 45 min 18 sec)
Heartbeat CPU 0 instructions: 1040000166 cycles: 495852671 heartbeat IPC: 1.92 cumulative IPC: 1.912 (Simulation time: 02 hr 46 min 56 sec)
Heartbeat CPU 0 instructions: 1050000166 cycles: 501065121 heartbeat IPC: 1.918 cumulative IPC: 1.912 (Simulation time: 02 hr 48 min 35 sec)
Heartbeat CPU 0 instructions: 1060000169 cycles: 506291749 heartbeat IPC: 1.913 cumulative IPC: 1.912 (Simulation time: 02 hr 50 min 15 sec)
Heartbeat CPU 0 instructions: 1070000173 cycles: 511528530 heartbeat IPC: 1.91 cumulative IPC: 1.912 (Simulation time: 02 hr 51 min 54 sec)
Heartbeat CPU 0 instructions: 1080000177 cycles: 516851545 heartbeat IPC: 1.879 cumulative IPC: 1.912 (Simulation time: 02 hr 53 min 34 sec)
Heartbeat CPU 0 instructions: 1090000180 cycles: 522101254 heartbeat IPC: 1.905 cumulative IPC: 1.912 (Simulation time: 02 hr 55 min 13 sec)
Heartbeat CPU 0 instructions: 1100000184 cycles: 527319070 heartbeat IPC: 1.917 cumulative IPC: 1.912 (Simulation time: 02 hr 56 min 51 sec)
Heartbeat CPU 0 instructions: 1110000188 cycles: 532512322 heartbeat IPC: 1.926 cumulative IPC: 1.912 (Simulation time: 02 hr 58 min 37 sec)
Heartbeat CPU 0 instructions: 1120000190 cycles: 537710763 heartbeat IPC: 1.924 cumulative IPC: 1.912 (Simulation time: 03 hr 00 min 22 sec)
Heartbeat CPU 0 instructions: 1130000193 cycles: 542890111 heartbeat IPC: 1.931 cumulative IPC: 1.912 (Simulation time: 03 hr 02 min 01 sec)
Heartbeat CPU 0 instructions: 1140000195 cycles: 548124064 heartbeat IPC: 1.911 cumulative IPC: 1.912 (Simulation time: 03 hr 03 min 40 sec)
Heartbeat CPU 0 instructions: 1150000196 cycles: 553341925 heartbeat IPC: 1.916 cumulative IPC: 1.912 (Simulation time: 03 hr 05 min 20 sec)
Heartbeat CPU 0 instructions: 1160000196 cycles: 558560889 heartbeat IPC: 1.916 cumulative IPC: 1.912 (Simulation time: 03 hr 06 min 59 sec)
Heartbeat CPU 0 instructions: 1170000199 cycles: 563811789 heartbeat IPC: 1.904 cumulative IPC: 1.912 (Simulation time: 03 hr 08 min 38 sec)
Heartbeat CPU 0 instructions: 1180000201 cycles: 569129417 heartbeat IPC: 1.881 cumulative IPC: 1.912 (Simulation time: 03 hr 10 min 18 sec)
Heartbeat CPU 0 instructions: 1190000202 cycles: 574341846 heartbeat IPC: 1.918 cumulative IPC: 1.912 (Simulation time: 03 hr 11 min 56 sec)
Simulation finished CPU 0 instructions: 1000000002 cycles: 522967439 cumulative IPC: 1.912 (Simulation time: 03 hr 13 min 35 sec)
Simulation complete CPU 0 instructions: 1000000002 cycles: 522967439 cumulative IPC: 1.912 (Simulation time: 03 hr 13 min 35 sec)

ChampSim completed all CPUs

=== Simulation ===
CPU 0 runs /home/grads/b/bhavishya_k_s/ecen676/ChampSim/dpc3_traces/607.cactuBSSN_s-2421B.champsimtrace.xz

Region of Interest Statistics

CPU 0 cumulative IPC: 1.912 instructions: 1000000002 cycles: 522967439
CPU 0 Branch Prediction Accuracy: 99.85% MPKI: 0.001788 Average ROB Occupancy at Mispredict: 279.3
Branch type MPKI
BRANCH_DIRECT_JUMP: 0
BRANCH_INDIRECT: 0
BRANCH_CONDITIONAL: 0.001788
BRANCH_DIRECT_CALL: 0
BRANCH_INDIRECT_CALL: 0
BRANCH_RETURN: 0

cpu0->cpu0_STLB TOTAL        ACCESS:   75412500 HIT:   75290513 MISS:     121987 MSHR_MERGE:          0
cpu0->cpu0_STLB LOAD         ACCESS:   75412500 HIT:   75290513 MISS:     121987 MSHR_MERGE:          0
cpu0->cpu0_STLB RFO          ACCESS:          0 HIT:          0 MISS:          0 MSHR_MERGE:          0
cpu0->cpu0_STLB PREFETCH     ACCESS:          0 HIT:          0 MISS:          0 MSHR_MERGE:          0
cpu0->cpu0_STLB WRITE        ACCESS:          0 HIT:          0 MISS:          0 MSHR_MERGE:          0
cpu0->cpu0_STLB TRANSLATION  ACCESS:          0 HIT:          0 MISS:          0 MSHR_MERGE:          0
cpu0->cpu0_STLB PREFETCH REQUESTED:          0 ISSUED:          0 USEFUL:          0 USELESS:          0
cpu0->cpu0_STLB AVERAGE MISS LATENCY: 339.7 cycles
cpu0->cpu0_L2C TOTAL        ACCESS:  236336243 HIT:  180337346 MISS:   55998897 MSHR_MERGE:    2016551
cpu0->cpu0_L2C LOAD         ACCESS:  108857287 HIT:  100176177 MISS:    8681110 MSHR_MERGE:       8930
cpu0->cpu0_L2C RFO          ACCESS:    8127489 HIT:    7675492 MISS:     451997 MSHR_MERGE:          0
cpu0->cpu0_L2C PREFETCH     ACCESS:  110243575 HIT:   63531963 MISS:   46711612 MSHR_MERGE:    2007621
cpu0->cpu0_L2C WRITE        ACCESS:    8919711 HIT:    8919265 MISS:        446 MSHR_MERGE:          0
cpu0->cpu0_L2C TRANSLATION  ACCESS:     188181 HIT:      34449 MISS:     153732 MSHR_MERGE:          0
cpu0->cpu0_L2C PREFETCH REQUESTED:  129303129 ISSUED:  110243575 USEFUL:    3423470 USELESS:      92222
cpu0->cpu0_L2C AVERAGE MISS LATENCY: 47.88 cycles
cpu0->cpu0_L1I TOTAL        ACCESS:  194860877 HIT:  194860877 MISS:          0 MSHR_MERGE:          0
cpu0->cpu0_L1I LOAD         ACCESS:  194860877 HIT:  194860877 MISS:          0 MSHR_MERGE:          0
cpu0->cpu0_L1I RFO          ACCESS:          0 HIT:          0 MISS:          0 MSHR_MERGE:          0
cpu0->cpu0_L1I PREFETCH     ACCESS:          0 HIT:          0 MISS:          0 MSHR_MERGE:          0
cpu0->cpu0_L1I WRITE        ACCESS:          0 HIT:          0 MISS:          0 MSHR_MERGE:          0
cpu0->cpu0_L1I TRANSLATION  ACCESS:          0 HIT:          0 MISS:          0 MSHR_MERGE:          0
cpu0->cpu0_L1I PREFETCH REQUESTED:          0 ISSUED:          0 USEFUL:          0 USELESS:          0
cpu0->cpu0_L1I AVERAGE MISS LATENCY: - cycles
cpu0->cpu0_L1D TOTAL        ACCESS:  307529731 HIT:  173411463 MISS:  134118268 MSHR_MERGE:   16673763
cpu0->cpu0_L1D LOAD         ACCESS:  193088185 HIT:   68127722 MISS:  124960463 MSHR_MERGE:   15837565
cpu0->cpu0_L1D RFO          ACCESS:          0 HIT:          0 MISS:          0 MSHR_MERGE:          0
cpu0->cpu0_L1D PREFETCH     ACCESS:          0 HIT:          0 MISS:          0 MSHR_MERGE:          0
cpu0->cpu0_L1D WRITE        ACCESS:  114251526 HIT:  105282132 MISS:    8969394 MSHR_MERGE:     835968
cpu0->cpu0_L1D TRANSLATION  ACCESS:     190020 HIT:       1609 MISS:     188411 MSHR_MERGE:        230
cpu0->cpu0_L1D PREFETCH REQUESTED:          0 ISSUED:          0 USEFUL:          0 USELESS:          0
cpu0->cpu0_L1D AVERAGE MISS LATENCY: 12.71 cycles
cpu0->cpu0_ITLB TOTAL        ACCESS:  157213295 HIT:  157213295 MISS:          0 MSHR_MERGE:          0
cpu0->cpu0_ITLB LOAD         ACCESS:  157213295 HIT:  157213295 MISS:          0 MSHR_MERGE:          0
cpu0->cpu0_ITLB RFO          ACCESS:          0 HIT:          0 MISS:          0 MSHR_MERGE:          0
cpu0->cpu0_ITLB PREFETCH     ACCESS:          0 HIT:          0 MISS:          0 MSHR_MERGE:          0
cpu0->cpu0_ITLB WRITE        ACCESS:          0 HIT:          0 MISS:          0 MSHR_MERGE:          0
cpu0->cpu0_ITLB TRANSLATION  ACCESS:          0 HIT:          0 MISS:          0 MSHR_MERGE:          0
cpu0->cpu0_ITLB PREFETCH REQUESTED:          0 ISSUED:          0 USEFUL:          0 USELESS:          0
cpu0->cpu0_ITLB AVERAGE MISS LATENCY: - cycles
cpu0->cpu0_DTLB TOTAL        ACCESS:  284382854 HIT:  182531915 MISS:  101850939 MSHR_MERGE:   26438439
cpu0->cpu0_DTLB LOAD         ACCESS:  284382854 HIT:  182531915 MISS:  101850939 MSHR_MERGE:   26438439
cpu0->cpu0_DTLB RFO          ACCESS:          0 HIT:          0 MISS:          0 MSHR_MERGE:          0
cpu0->cpu0_DTLB PREFETCH     ACCESS:          0 HIT:          0 MISS:          0 MSHR_MERGE:          0
cpu0->cpu0_DTLB WRITE        ACCESS:          0 HIT:          0 MISS:          0 MSHR_MERGE:          0
cpu0->cpu0_DTLB TRANSLATION  ACCESS:          0 HIT:          0 MISS:          0 MSHR_MERGE:          0
cpu0->cpu0_DTLB PREFETCH REQUESTED:          0 ISSUED:          0 USEFUL:          0 USELESS:          0
cpu0->cpu0_DTLB AVERAGE MISS LATENCY: 5.596 cycles
cpu0->LLC TOTAL        ACCESS:   55228643 HIT:   46493178 MISS:    8735465 MSHR_MERGE:     733703
cpu0->LLC LOAD         ACCESS:    8672167 HIT:    7541197 MISS:    1130970 MSHR_MERGE:       1227
cpu0->LLC RFO          ACCESS:     448473 HIT:     448461 MISS:         12 MSHR_MERGE:          0
cpu0->LLC PREFETCH     ACCESS:   44677604 HIT:   37171486 MISS:    7506118 MSHR_MERGE:     732476
cpu0->LLC WRITE        ACCESS:    1276667 HIT:    1274836 MISS:       1831 MSHR_MERGE:          0
cpu0->LLC TRANSLATION  ACCESS:     153732 HIT:      57198 MISS:      96534 MSHR_MERGE:          0
cpu0->LLC PREFETCH REQUESTED:          0 ISSUED:          0 USEFUL:          0 USELESS:          0
cpu0->LLC AVERAGE MISS LATENCY: 246.9 cycles

DRAM Statistics

Channel 0 RQ ROW_BUFFER_HIT:       2361
  ROW_BUFFER_MISS:    7997357
  AVG DBUS CONGESTED CYCLE: 4.615
Channel 0 WQ ROW_BUFFER_HIT:     108079
  ROW_BUFFER_MISS:     848609
  FULL:          0
Channel 0 REFRESHES ISSUED:      43581
