[VMEM] WARNING: physical memory size is smaller than virtual memory size.
WARNING: option --warmup_instructions is deprecated. Use --warmup-instructions instead.
WARNING: option --simulation_instructions is deprecated. Use --simulation-instructions instead.

*** ChampSim Multicore Out-of-Order Simulator ***
Warmup Instructions: 200000000
Simulation Instructions: 1000000000
Number of CPUs: 1
Page size: 4096

Initialize SIGNATURE TABLE
ST_SET: 1
ST_WAY: 256
ST_TAG_BIT: 16

Initialize PATTERN TABLE
PT_SET: 512
PT_WAY: 4
SIG_DELTA_BIT: 7
C_SIG_BIT: 4
C_DELTA_BIT: 4

Initialize PREFETCH FILTER
FILTER_SET: 1024
Off-chip DRAM Size: 16 GiB Channels: 1 Width: 64-bit Data Rate: 3205 MT/s
Heartbeat CPU 0 instructions: 10000003 cycles: 3109826 heartbeat IPC: 3.216 cumulative IPC: 3.216 (Simulation time: 00 hr 01 min 04 sec)
Heartbeat CPU 0 instructions: 20000003 cycles: 6193215 heartbeat IPC: 3.243 cumulative IPC: 3.229 (Simulation time: 00 hr 02 min 08 sec)
Heartbeat CPU 0 instructions: 30000004 cycles: 9268629 heartbeat IPC: 3.252 cumulative IPC: 3.237 (Simulation time: 00 hr 03 min 11 sec)
Heartbeat CPU 0 instructions: 40000008 cycles: 12365651 heartbeat IPC: 3.229 cumulative IPC: 3.235 (Simulation time: 00 hr 04 min 15 sec)
Heartbeat CPU 0 instructions: 50000012 cycles: 15462199 heartbeat IPC: 3.229 cumulative IPC: 3.234 (Simulation time: 00 hr 05 min 18 sec)
Heartbeat CPU 0 instructions: 60000015 cycles: 18573892 heartbeat IPC: 3.214 cumulative IPC: 3.23 (Simulation time: 00 hr 06 min 22 sec)
Heartbeat CPU 0 instructions: 70000017 cycles: 21676743 heartbeat IPC: 3.223 cumulative IPC: 3.229 (Simulation time: 00 hr 07 min 26 sec)
Heartbeat CPU 0 instructions: 80000021 cycles: 24763114 heartbeat IPC: 3.24 cumulative IPC: 3.231 (Simulation time: 00 hr 08 min 30 sec)
Heartbeat CPU 0 instructions: 90000023 cycles: 27863120 heartbeat IPC: 3.226 cumulative IPC: 3.23 (Simulation time: 00 hr 09 min 34 sec)
Heartbeat CPU 0 instructions: 100000023 cycles: 30954743 heartbeat IPC: 3.235 cumulative IPC: 3.231 (Simulation time: 00 hr 10 min 37 sec)
Heartbeat CPU 0 instructions: 110000023 cycles: 34060600 heartbeat IPC: 3.22 cumulative IPC: 3.23 (Simulation time: 00 hr 11 min 41 sec)
Heartbeat CPU 0 instructions: 120000024 cycles: 37176736 heartbeat IPC: 3.209 cumulative IPC: 3.228 (Simulation time: 00 hr 12 min 43 sec)
Heartbeat CPU 0 instructions: 130000028 cycles: 40263315 heartbeat IPC: 3.24 cumulative IPC: 3.229 (Simulation time: 00 hr 13 min 45 sec)
Heartbeat CPU 0 instructions: 140000028 cycles: 43358734 heartbeat IPC: 3.231 cumulative IPC: 3.229 (Simulation time: 00 hr 14 min 47 sec)
Heartbeat CPU 0 instructions: 150000030 cycles: 46472463 heartbeat IPC: 3.212 cumulative IPC: 3.228 (Simulation time: 00 hr 15 min 49 sec)
Heartbeat CPU 0 instructions: 160000032 cycles: 49598812 heartbeat IPC: 3.199 cumulative IPC: 3.226 (Simulation time: 00 hr 16 min 53 sec)
Heartbeat CPU 0 instructions: 170000034 cycles: 52712596 heartbeat IPC: 3.212 cumulative IPC: 3.225 (Simulation time: 00 hr 17 min 57 sec)
Heartbeat CPU 0 instructions: 180000037 cycles: 55826383 heartbeat IPC: 3.212 cumulative IPC: 3.224 (Simulation time: 00 hr 19 min 02 sec)
Heartbeat CPU 0 instructions: 190000038 cycles: 58946827 heartbeat IPC: 3.205 cumulative IPC: 3.223 (Simulation time: 00 hr 20 min 07 sec)
Warmup finished CPU 0 instructions: 200000001 cycles: 62060666 cumulative IPC: 3.223 (Simulation time: 00 hr 21 min 12 sec)
Warmup complete CPU 0 instructions: 200000001 cycles: 62060666 cumulative IPC: 3.223 (Simulation time: 00 hr 21 min 12 sec)
Heartbeat CPU 0 instructions: 200000041 cycles: 62060683 heartbeat IPC: 3.211 cumulative IPC: 2.353 (Simulation time: 00 hr 21 min 12 sec)
Heartbeat CPU 0 instructions: 210000045 cycles: 81610983 heartbeat IPC: 0.5115 cumulative IPC: 0.5115 (Simulation time: 00 hr 27 min 19 sec)
Heartbeat CPU 0 instructions: 220000046 cycles: 101109933 heartbeat IPC: 0.5128 cumulative IPC: 0.5122 (Simulation time: 00 hr 33 min 22 sec)
Heartbeat CPU 0 instructions: 230000046 cycles: 120351287 heartbeat IPC: 0.5197 cumulative IPC: 0.5147 (Simulation time: 00 hr 39 min 25 sec)
Heartbeat CPU 0 instructions: 240000049 cycles: 139671856 heartbeat IPC: 0.5176 cumulative IPC: 0.5154 (Simulation time: 00 hr 45 min 41 sec)
Heartbeat CPU 0 instructions: 250000052 cycles: 158506630 heartbeat IPC: 0.5309 cumulative IPC: 0.5184 (Simulation time: 00 hr 51 min 37 sec)
Heartbeat CPU 0 instructions: 260000054 cycles: 177418813 heartbeat IPC: 0.5288 cumulative IPC: 0.5201 (Simulation time: 00 hr 57 min 28 sec)
Heartbeat CPU 0 instructions: 270000055 cycles: 196254674 heartbeat IPC: 0.5309 cumulative IPC: 0.5216 (Simulation time: 01 hr 03 min 21 sec)
Heartbeat CPU 0 instructions: 280000058 cycles: 214793942 heartbeat IPC: 0.5394 cumulative IPC: 0.5238 (Simulation time: 01 hr 09 min 09 sec)
Heartbeat CPU 0 instructions: 290000061 cycles: 233631668 heartbeat IPC: 0.5308 cumulative IPC: 0.5246 (Simulation time: 01 hr 15 min 16 sec)
Heartbeat CPU 0 instructions: 300000061 cycles: 252738350 heartbeat IPC: 0.5234 cumulative IPC: 0.5244 (Simulation time: 01 hr 21 min 17 sec)
Heartbeat CPU 0 instructions: 310000065 cycles: 271757125 heartbeat IPC: 0.5258 cumulative IPC: 0.5246 (Simulation time: 01 hr 27 min 09 sec)
Heartbeat CPU 0 instructions: 320000068 cycles: 290732441 heartbeat IPC: 0.527 cumulative IPC: 0.5248 (Simulation time: 01 hr 33 min 12 sec)
Heartbeat CPU 0 instructions: 330000069 cycles: 309525988 heartbeat IPC: 0.5321 cumulative IPC: 0.5253 (Simulation time: 01 hr 39 min 10 sec)
Heartbeat CPU 0 instructions: 340000072 cycles: 328034268 heartbeat IPC: 0.5403 cumulative IPC: 0.5264 (Simulation time: 01 hr 45 min 07 sec)
Heartbeat CPU 0 instructions: 350000072 cycles: 346306076 heartbeat IPC: 0.5473 cumulative IPC: 0.5277 (Simulation time: 01 hr 50 min 57 sec)
Heartbeat CPU 0 instructions: 360000072 cycles: 365086501 heartbeat IPC: 0.5325 cumulative IPC: 0.528 (Simulation time: 01 hr 56 min 57 sec)
Heartbeat CPU 0 instructions: 370000072 cycles: 383414226 heartbeat IPC: 0.5456 cumulative IPC: 0.529 (Simulation time: 02 hr 02 min 52 sec)
Heartbeat CPU 0 instructions: 380000076 cycles: 401932177 heartbeat IPC: 0.54 cumulative IPC: 0.5296 (Simulation time: 02 hr 08 min 49 sec)
Heartbeat CPU 0 instructions: 390000077 cycles: 420476563 heartbeat IPC: 0.5392 cumulative IPC: 0.5301 (Simulation time: 02 hr 14 min 55 sec)
Heartbeat CPU 0 instructions: 400000077 cycles: 438631790 heartbeat IPC: 0.5508 cumulative IPC: 0.5311 (Simulation time: 02 hr 20 min 43 sec)
Heartbeat CPU 0 instructions: 410000079 cycles: 457209865 heartbeat IPC: 0.5383 cumulative IPC: 0.5314 (Simulation time: 02 hr 26 min 40 sec)
Heartbeat CPU 0 instructions: 420000081 cycles: 475822971 heartbeat IPC: 0.5373 cumulative IPC: 0.5317 (Simulation time: 02 hr 32 min 34 sec)
Heartbeat CPU 0 instructions: 430000084 cycles: 494969716 heartbeat IPC: 0.5223 cumulative IPC: 0.5313 (Simulation time: 02 hr 38 min 42 sec)
Heartbeat CPU 0 instructions: 440000084 cycles: 513964784 heartbeat IPC: 0.5265 cumulative IPC: 0.5311 (Simulation time: 02 hr 44 min 51 sec)
Heartbeat CPU 0 instructions: 450000085 cycles: 532443022 heartbeat IPC: 0.5412 cumulative IPC: 0.5315 (Simulation time: 02 hr 50 min 54 sec)
Heartbeat CPU 0 instructions: 460000085 cycles: 550197554 heartbeat IPC: 0.5632 cumulative IPC: 0.5326 (Simulation time: 02 hr 56 min 40 sec)
Heartbeat CPU 0 instructions: 470000089 cycles: 567871940 heartbeat IPC: 0.5658 cumulative IPC: 0.5338 (Simulation time: 03 hr 02 min 24 sec)
Heartbeat CPU 0 instructions: 480000089 cycles: 584916828 heartbeat IPC: 0.5867 cumulative IPC: 0.5355 (Simulation time: 03 hr 07 min 57 sec)
Heartbeat CPU 0 instructions: 490000091 cycles: 601003105 heartbeat IPC: 0.6216 cumulative IPC: 0.5381 (Simulation time: 03 hr 13 min 10 sec)
Heartbeat CPU 0 instructions: 500000091 cycles: 616290009 heartbeat IPC: 0.6542 cumulative IPC: 0.5413 (Simulation time: 03 hr 18 min 11 sec)
Heartbeat CPU 0 instructions: 510000095 cycles: 631033243 heartbeat IPC: 0.6783 cumulative IPC: 0.5448 (Simulation time: 03 hr 23 min 06 sec)
Heartbeat CPU 0 instructions: 520000098 cycles: 644862001 heartbeat IPC: 0.7231 cumulative IPC: 0.5491 (Simulation time: 03 hr 27 min 38 sec)
Heartbeat CPU 0 instructions: 530000100 cycles: 657930318 heartbeat IPC: 0.7652 cumulative IPC: 0.5538 (Simulation time: 03 hr 31 min 56 sec)
Heartbeat CPU 0 instructions: 540000100 cycles: 670581756 heartbeat IPC: 0.7904 cumulative IPC: 0.5587 (Simulation time: 03 hr 36 min 08 sec)
Heartbeat CPU 0 instructions: 550000104 cycles: 682408866 heartbeat IPC: 0.8455 cumulative IPC: 0.5642 (Simulation time: 03 hr 40 min 04 sec)
Heartbeat CPU 0 instructions: 560000105 cycles: 694216775 heartbeat IPC: 0.8469 cumulative IPC: 0.5695 (Simulation time: 03 hr 43 min 57 sec)
Heartbeat CPU 0 instructions: 570000105 cycles: 705257122 heartbeat IPC: 0.9058 cumulative IPC: 0.5753 (Simulation time: 03 hr 47 min 35 sec)
Heartbeat CPU 0 instructions: 580000105 cycles: 716228428 heartbeat IPC: 0.9115 cumulative IPC: 0.5809 (Simulation time: 03 hr 51 min 13 sec)
Heartbeat CPU 0 instructions: 590000108 cycles: 726694684 heartbeat IPC: 0.9555 cumulative IPC: 0.5868 (Simulation time: 03 hr 54 min 40 sec)
Heartbeat CPU 0 instructions: 600000110 cycles: 736863828 heartbeat IPC: 0.9834 cumulative IPC: 0.5928 (Simulation time: 03 hr 57 min 56 sec)
Heartbeat CPU 0 instructions: 610000112 cycles: 746602974 heartbeat IPC: 1.027 cumulative IPC: 0.5989 (Simulation time: 04 hr 01 min 04 sec)
Heartbeat CPU 0 instructions: 620000115 cycles: 756416171 heartbeat IPC: 1.019 cumulative IPC: 0.6049 (Simulation time: 04 hr 04 min 14 sec)
Heartbeat CPU 0 instructions: 630000115 cycles: 766064207 heartbeat IPC: 1.036 cumulative IPC: 0.6108 (Simulation time: 04 hr 07 min 22 sec)
Heartbeat CPU 0 instructions: 640000119 cycles: 775419217 heartbeat IPC: 1.069 cumulative IPC: 0.6168 (Simulation time: 04 hr 10 min 24 sec)
Heartbeat CPU 0 instructions: 650000121 cycles: 784792884 heartbeat IPC: 1.067 cumulative IPC: 0.6226 (Simulation time: 04 hr 13 min 26 sec)
Heartbeat CPU 0 instructions: 660000122 cycles: 793843249 heartbeat IPC: 1.105 cumulative IPC: 0.6286 (Simulation time: 04 hr 16 min 18 sec)
Heartbeat CPU 0 instructions: 670000126 cycles: 802975037 heartbeat IPC: 1.095 cumulative IPC: 0.6344 (Simulation time: 04 hr 19 min 08 sec)
Heartbeat CPU 0 instructions: 680000126 cycles: 811966786 heartbeat IPC: 1.112 cumulative IPC: 0.6401 (Simulation time: 04 hr 22 min 01 sec)
Heartbeat CPU 0 instructions: 690000127 cycles: 820998008 heartbeat IPC: 1.107 cumulative IPC: 0.6456 (Simulation time: 04 hr 24 min 47 sec)
Heartbeat CPU 0 instructions: 700000128 cycles: 830024320 heartbeat IPC: 1.108 cumulative IPC: 0.6511 (Simulation time: 04 hr 27 min 35 sec)
Heartbeat CPU 0 instructions: 710000131 cycles: 838974400 heartbeat IPC: 1.117 cumulative IPC: 0.6564 (Simulation time: 04 hr 30 min 20 sec)
Heartbeat CPU 0 instructions: 720000133 cycles: 847774786 heartbeat IPC: 1.136 cumulative IPC: 0.6618 (Simulation time: 04 hr 33 min 02 sec)
Heartbeat CPU 0 instructions: 730000133 cycles: 856661353 heartbeat IPC: 1.125 cumulative IPC: 0.667 (Simulation time: 04 hr 35 min 47 sec)
Heartbeat CPU 0 instructions: 740000137 cycles: 865425158 heartbeat IPC: 1.141 cumulative IPC: 0.6722 (Simulation time: 04 hr 38 min 30 sec)
Heartbeat CPU 0 instructions: 750000138 cycles: 874243402 heartbeat IPC: 1.134 cumulative IPC: 0.6772 (Simulation time: 04 hr 41 min 13 sec)
Heartbeat CPU 0 instructions: 760000141 cycles: 882956600 heartbeat IPC: 1.148 cumulative IPC: 0.6822 (Simulation time: 04 hr 43 min 54 sec)
Heartbeat CPU 0 instructions: 770000144 cycles: 891759160 heartbeat IPC: 1.136 cumulative IPC: 0.687 (Simulation time: 04 hr 46 min 37 sec)
Heartbeat CPU 0 instructions: 780000147 cycles: 900414080 heartbeat IPC: 1.155 cumulative IPC: 0.6918 (Simulation time: 04 hr 49 min 19 sec)
Heartbeat CPU 0 instructions: 790000147 cycles: 909176187 heartbeat IPC: 1.141 cumulative IPC: 0.6965 (Simulation time: 04 hr 52 min 06 sec)
Heartbeat CPU 0 instructions: 800000150 cycles: 917805057 heartbeat IPC: 1.159 cumulative IPC: 0.7011 (Simulation time: 04 hr 54 min 48 sec)
Heartbeat CPU 0 instructions: 810000151 cycles: 926572149 heartbeat IPC: 1.141 cumulative IPC: 0.7056 (Simulation time: 04 hr 57 min 31 sec)
Heartbeat CPU 0 instructions: 820000152 cycles: 935335973 heartbeat IPC: 1.141 cumulative IPC: 0.71 (Simulation time: 05 hr 00 min 15 sec)
Heartbeat CPU 0 instructions: 830000152 cycles: 943981506 heartbeat IPC: 1.157 cumulative IPC: 0.7143 (Simulation time: 05 hr 02 min 56 sec)
Heartbeat CPU 0 instructions: 840000155 cycles: 952747149 heartbeat IPC: 1.141 cumulative IPC: 0.7185 (Simulation time: 05 hr 05 min 39 sec)
Heartbeat CPU 0 instructions: 850000157 cycles: 961365068 heartbeat IPC: 1.16 cumulative IPC: 0.7228 (Simulation time: 05 hr 08 min 19 sec)
Heartbeat CPU 0 instructions: 860000158 cycles: 970143601 heartbeat IPC: 1.139 cumulative IPC: 0.7268 (Simulation time: 05 hr 11 min 03 sec)
Heartbeat CPU 0 instructions: 870000159 cycles: 978766152 heartbeat IPC: 1.16 cumulative IPC: 0.7309 (Simulation time: 05 hr 13 min 44 sec)
Heartbeat CPU 0 instructions: 880000159 cycles: 987546059 heartbeat IPC: 1.139 cumulative IPC: 0.7347 (Simulation time: 05 hr 16 min 27 sec)
Heartbeat CPU 0 instructions: 890000161 cycles: 996178007 heartbeat IPC: 1.158 cumulative IPC: 0.7387 (Simulation time: 05 hr 19 min 08 sec)
Heartbeat CPU 0 instructions: 900000163 cycles: 1004942771 heartbeat IPC: 1.141 cumulative IPC: 0.7424 (Simulation time: 05 hr 21 min 52 sec)
Heartbeat CPU 0 instructions: 910000163 cycles: 1013586786 heartbeat IPC: 1.157 cumulative IPC: 0.7462 (Simulation time: 05 hr 24 min 39 sec)
Heartbeat CPU 0 instructions: 920000165 cycles: 1022345013 heartbeat IPC: 1.142 cumulative IPC: 0.7498 (Simulation time: 05 hr 27 min 22 sec)
Heartbeat CPU 0 instructions: 930000168 cycles: 1030966103 heartbeat IPC: 1.16 cumulative IPC: 0.7534 (Simulation time: 05 hr 30 min 02 sec)
Heartbeat CPU 0 instructions: 940000171 cycles: 1040157982 heartbeat IPC: 1.088 cumulative IPC: 0.7566 (Simulation time: 05 hr 32 min 51 sec)
Heartbeat CPU 0 instructions: 950000174 cycles: 1066176046 heartbeat IPC: 0.3843 cumulative IPC: 0.7469 (Simulation time: 05 hr 40 min 22 sec)
Heartbeat CPU 0 instructions: 960000177 cycles: 1086693769 heartbeat IPC: 0.4874 cumulative IPC: 0.7417 (Simulation time: 05 hr 46 min 20 sec)
Heartbeat CPU 0 instructions: 970000181 cycles: 1095878550 heartbeat IPC: 1.089 cumulative IPC: 0.7448 (Simulation time: 05 hr 49 min 13 sec)
Heartbeat CPU 0 instructions: 980000183 cycles: 1104522516 heartbeat IPC: 1.157 cumulative IPC: 0.7482 (Simulation time: 05 hr 51 min 53 sec)
Heartbeat CPU 0 instructions: 990000183 cycles: 1113294109 heartbeat IPC: 1.14 cumulative IPC: 0.7515 (Simulation time: 05 hr 54 min 35 sec)
Heartbeat CPU 0 instructions: 1000000186 cycles: 1121922905 heartbeat IPC: 1.159 cumulative IPC: 0.7548 (Simulation time: 05 hr 57 min 18 sec)
Heartbeat CPU 0 instructions: 1010000187 cycles: 1130708908 heartbeat IPC: 1.138 cumulative IPC: 0.758 (Simulation time: 06 hr 00 min 00 sec)
Heartbeat CPU 0 instructions: 1020000189 cycles: 1139319694 heartbeat IPC: 1.161 cumulative IPC: 0.7612 (Simulation time: 06 hr 02 min 39 sec)
Heartbeat CPU 0 instructions: 1030000190 cycles: 1148112974 heartbeat IPC: 1.137 cumulative IPC: 0.7642 (Simulation time: 06 hr 05 min 21 sec)
Heartbeat CPU 0 instructions: 1040000192 cycles: 1156766414 heartbeat IPC: 1.156 cumulative IPC: 0.7673 (Simulation time: 06 hr 08 min 01 sec)
Heartbeat CPU 0 instructions: 1050000193 cycles: 1165541321 heartbeat IPC: 1.14 cumulative IPC: 0.7703 (Simulation time: 06 hr 10 min 44 sec)
Heartbeat CPU 0 instructions: 1060000195 cycles: 1174183553 heartbeat IPC: 1.157 cumulative IPC: 0.7733 (Simulation time: 06 hr 13 min 24 sec)
Heartbeat CPU 0 instructions: 1070000196 cycles: 1182965606 heartbeat IPC: 1.139 cumulative IPC: 0.7762 (Simulation time: 06 hr 16 min 05 sec)
Heartbeat CPU 0 instructions: 1080000198 cycles: 1191630710 heartbeat IPC: 1.154 cumulative IPC: 0.7791 (Simulation time: 06 hr 18 min 46 sec)
Heartbeat CPU 0 instructions: 1090000199 cycles: 1200423005 heartbeat IPC: 1.137 cumulative IPC: 0.7818 (Simulation time: 06 hr 21 min 30 sec)
Heartbeat CPU 0 instructions: 1100000200 cycles: 1209210904 heartbeat IPC: 1.138 cumulative IPC: 0.7846 (Simulation time: 06 hr 24 min 13 sec)
Heartbeat CPU 0 instructions: 1110000202 cycles: 1217824085 heartbeat IPC: 1.161 cumulative IPC: 0.7874 (Simulation time: 06 hr 26 min 52 sec)
Heartbeat CPU 0 instructions: 1120000202 cycles: 1226835867 heartbeat IPC: 1.11 cumulative IPC: 0.7899 (Simulation time: 06 hr 29 min 43 sec)
Heartbeat CPU 0 instructions: 1130000203 cycles: 1236370274 heartbeat IPC: 1.049 cumulative IPC: 0.792 (Simulation time: 06 hr 32 min 39 sec)
Heartbeat CPU 0 instructions: 1140000207 cycles: 1247322729 heartbeat IPC: 0.913 cumulative IPC: 0.7931 (Simulation time: 06 hr 35 min 56 sec)
Heartbeat CPU 0 instructions: 1150000209 cycles: 1259462463 heartbeat IPC: 0.8237 cumulative IPC: 0.7934 (Simulation time: 06 hr 39 min 33 sec)
Heartbeat CPU 0 instructions: 1160000213 cycles: 1273589934 heartbeat IPC: 0.7078 cumulative IPC: 0.7924 (Simulation time: 06 hr 43 min 39 sec)
Heartbeat CPU 0 instructions: 1170000214 cycles: 1291051086 heartbeat IPC: 0.5727 cumulative IPC: 0.7893 (Simulation time: 06 hr 48 min 36 sec)
Heartbeat CPU 0 instructions: 1180000217 cycles: 1312984394 heartbeat IPC: 0.4559 cumulative IPC: 0.7834 (Simulation time: 06 hr 54 min 40 sec)
Heartbeat CPU 0 instructions: 1190000218 cycles: 1336281888 heartbeat IPC: 0.4292 cumulative IPC: 0.7769 (Simulation time: 07 hr 01 min 03 sec)
Simulation finished CPU 0 instructions: 1000000002 cycles: 1300169964 cumulative IPC: 0.7691 (Simulation time: 07 hr 08 min 14 sec)
Simulation complete CPU 0 instructions: 1000000002 cycles: 1300169964 cumulative IPC: 0.7691 (Simulation time: 07 hr 08 min 14 sec)

ChampSim completed all CPUs

=== Simulation ===
CPU 0 runs /home/grads/b/bhavishya_k_s/ecen676/ChampSim/dpc3_traces/619.lbm_s-4268B.champsimtrace.xz

Region of Interest Statistics

CPU 0 cumulative IPC: 0.7691 instructions: 1000000002 cycles: 1300169964
CPU 0 Branch Prediction Accuracy: 97.81% MPKI: 0.3066 Average ROB Occupancy at Mispredict: 275.5
Branch type MPKI
BRANCH_DIRECT_JUMP: 3e-06
BRANCH_INDIRECT: 0
BRANCH_CONDITIONAL: 0.3066
BRANCH_DIRECT_CALL: 2e-06
BRANCH_INDIRECT_CALL: 0
BRANCH_RETURN: 2e-06

cpu0->cpu0_STLB TOTAL        ACCESS:     934783 HIT:     426895 MISS:     507888 MSHR_MERGE:          0
cpu0->cpu0_STLB LOAD         ACCESS:     934783 HIT:     426895 MISS:     507888 MSHR_MERGE:          0
cpu0->cpu0_STLB RFO          ACCESS:          0 HIT:          0 MISS:          0 MSHR_MERGE:          0
cpu0->cpu0_STLB PREFETCH     ACCESS:          0 HIT:          0 MISS:          0 MSHR_MERGE:          0
cpu0->cpu0_STLB WRITE        ACCESS:          0 HIT:          0 MISS:          0 MSHR_MERGE:          0
cpu0->cpu0_STLB TRANSLATION  ACCESS:          0 HIT:          0 MISS:          0 MSHR_MERGE:          0
cpu0->cpu0_STLB PREFETCH REQUESTED:          0 ISSUED:          0 USEFUL:          0 USELESS:          0
cpu0->cpu0_STLB AVERAGE MISS LATENCY: 218.6 cycles
cpu0->cpu0_L2C TOTAL        ACCESS:  176206955 HIT:   71497035 MISS:  104709920 MSHR_MERGE:    6158567
cpu0->cpu0_L2C LOAD         ACCESS:    8123553 HIT:    2125825 MISS:    5997728 MSHR_MERGE:    1287643
cpu0->cpu0_L2C RFO          ACCESS:   45829890 HIT:   20671219 MISS:   25158671 MSHR_MERGE:          0
cpu0->cpu0_L2C PREFETCH     ACCESS:   75911855 HIT:    2362244 MISS:   73549611 MSHR_MERGE:    4870924
cpu0->cpu0_L2C WRITE        ACCESS:   45834206 HIT:   45834132 MISS:         74 MSHR_MERGE:          0
cpu0->cpu0_L2C TRANSLATION  ACCESS:     507451 HIT:     503615 MISS:       3836 MSHR_MERGE:          0
cpu0->cpu0_L2C PREFETCH REQUESTED:  134598829 ISSUED:   75911855 USEFUL:    3413262 USELESS:         49
cpu0->cpu0_L2C AVERAGE MISS LATENCY: 566.6 cycles
cpu0->cpu0_L1I TOTAL        ACCESS:  168740544 HIT:  168740541 MISS:          3 MSHR_MERGE:          0
cpu0->cpu0_L1I LOAD         ACCESS:  168740544 HIT:  168740541 MISS:          3 MSHR_MERGE:          0
cpu0->cpu0_L1I RFO          ACCESS:          0 HIT:          0 MISS:          0 MSHR_MERGE:          0
cpu0->cpu0_L1I PREFETCH     ACCESS:          0 HIT:          0 MISS:          0 MSHR_MERGE:          0
cpu0->cpu0_L1I WRITE        ACCESS:          0 HIT:          0 MISS:          0 MSHR_MERGE:          0
cpu0->cpu0_L1I TRANSLATION  ACCESS:          0 HIT:          0 MISS:          0 MSHR_MERGE:          0
cpu0->cpu0_L1I PREFETCH REQUESTED:          0 ISSUED:          0 USEFUL:          0 USELESS:          0
cpu0->cpu0_L1I AVERAGE MISS LATENCY: 224 cycles
cpu0->cpu0_L1D TOTAL        ACCESS:  214533508 HIT:  154027622 MISS:   60505886 MSHR_MERGE:    6040701
cpu0->cpu0_L1D LOAD         ACCESS:   50895596 HIT:   39308728 MISS:   11586868 MSHR_MERGE:    3463317
cpu0->cpu0_L1D RFO          ACCESS:          0 HIT:          0 MISS:          0 MSHR_MERGE:          0
cpu0->cpu0_L1D PREFETCH     ACCESS:          0 HIT:          0 MISS:          0 MSHR_MERGE:          0
cpu0->cpu0_L1D WRITE        ACCESS:  163129511 HIT:  114717950 MISS:   48411561 MSHR_MERGE:    2577378
cpu0->cpu0_L1D TRANSLATION  ACCESS:     508401 HIT:        944 MISS:     507457 MSHR_MERGE:          6
cpu0->cpu0_L1D PREFETCH REQUESTED:          0 ISSUED:          0 USEFUL:          0 USELESS:          0
cpu0->cpu0_L1D AVERAGE MISS LATENCY: 333.8 cycles
cpu0->cpu0_ITLB TOTAL        ACCESS:  128447981 HIT:  128447980 MISS:          1 MSHR_MERGE:          0
cpu0->cpu0_ITLB LOAD         ACCESS:  128447981 HIT:  128447980 MISS:          1 MSHR_MERGE:          0
cpu0->cpu0_ITLB RFO          ACCESS:          0 HIT:          0 MISS:          0 MSHR_MERGE:          0
cpu0->cpu0_ITLB PREFETCH     ACCESS:          0 HIT:          0 MISS:          0 MSHR_MERGE:          0
cpu0->cpu0_ITLB WRITE        ACCESS:          0 HIT:          0 MISS:          0 MSHR_MERGE:          0
cpu0->cpu0_ITLB TRANSLATION  ACCESS:          0 HIT:          0 MISS:          0 MSHR_MERGE:          0
cpu0->cpu0_ITLB PREFETCH REQUESTED:          0 ISSUED:          0 USEFUL:          0 USELESS:          0
cpu0->cpu0_ITLB AVERAGE MISS LATENCY: 602 cycles
cpu0->cpu0_DTLB TOTAL        ACCESS:  200734403 HIT:  199239108 MISS:    1495295 MSHR_MERGE:     560513
cpu0->cpu0_DTLB LOAD         ACCESS:  200734403 HIT:  199239108 MISS:    1495295 MSHR_MERGE:     560513
cpu0->cpu0_DTLB RFO          ACCESS:          0 HIT:          0 MISS:          0 MSHR_MERGE:          0
cpu0->cpu0_DTLB PREFETCH     ACCESS:          0 HIT:          0 MISS:          0 MSHR_MERGE:          0
cpu0->cpu0_DTLB WRITE        ACCESS:          0 HIT:          0 MISS:          0 MSHR_MERGE:          0
cpu0->cpu0_DTLB TRANSLATION  ACCESS:          0 HIT:          0 MISS:          0 MSHR_MERGE:          0
cpu0->cpu0_DTLB PREFETCH REQUESTED:          0 ISSUED:          0 USEFUL:          0 USELESS:          0
cpu0->cpu0_DTLB AVERAGE MISS LATENCY: 124.3 cycles
cpu0->LLC TOTAL        ACCESS:  123668133 HIT:   66910087 MISS:   56758046 MSHR_MERGE:   24259887
cpu0->LLC LOAD         ACCESS:    4710085 HIT:    3797226 MISS:     912859 MSHR_MERGE:     619922
cpu0->LLC RFO          ACCESS:   25158652 HIT:     788653 MISS:   24369999 MSHR_MERGE:          0
cpu0->LLC PREFETCH     ACCESS:   68636798 HIT:   37165548 MISS:   31471250 MSHR_MERGE:   23639965
cpu0->LLC WRITE        ACCESS:   25158762 HIT:   25158606 MISS:        156 MSHR_MERGE:          0
cpu0->LLC TRANSLATION  ACCESS:       3836 HIT:         54 MISS:       3782 MSHR_MERGE:          0
cpu0->LLC PREFETCH REQUESTED:          0 ISSUED:          0 USEFUL:          0 USELESS:          0
cpu0->LLC AVERAGE MISS LATENCY: 671.9 cycles

DRAM Statistics

Channel 0 RQ ROW_BUFFER_HIT:    2279086
  ROW_BUFFER_MISS:   30218904
  AVG DBUS CONGESTED CYCLE: 7.479
Channel 0 WQ ROW_BUFFER_HIT:    3207642
  ROW_BUFFER_MISS:   21162795
  FULL:          0
Channel 0 REFRESHES ISSUED:     108348
