[VMEM] WARNING: physical memory size is smaller than virtual memory size.
WARNING: option --warmup_instructions is deprecated. Use --warmup-instructions instead.
WARNING: option --simulation_instructions is deprecated. Use --simulation-instructions instead.

*** ChampSim Multicore Out-of-Order Simulator ***
Warmup Instructions: 200000000
Simulation Instructions: 1000000000
Number of CPUs: 1
Page size: 4096

Initialize SIGNATURE TABLE
ST_SET: 1
ST_WAY: 256
ST_TAG_BIT: 16

Initialize PATTERN TABLE
PT_SET: 512
PT_WAY: 4
SIG_DELTA_BIT: 7
C_SIG_BIT: 4
C_DELTA_BIT: 4

Initialize PREFETCH FILTER
FILTER_SET: 1024
Off-chip DRAM Size: 16 GiB Channels: 1 Width: 64-bit Data Rate: 3205 MT/s
Heartbeat CPU 0 instructions: 10000002 cycles: 2926064 heartbeat IPC: 3.418 cumulative IPC: 3.418 (Simulation time: 00 hr 00 min 49 sec)
Heartbeat CPU 0 instructions: 20000003 cycles: 5432783 heartbeat IPC: 3.989 cumulative IPC: 3.681 (Simulation time: 00 hr 01 min 38 sec)
Heartbeat CPU 0 instructions: 30000004 cycles: 7941257 heartbeat IPC: 3.986 cumulative IPC: 3.778 (Simulation time: 00 hr 02 min 27 sec)
Heartbeat CPU 0 instructions: 40000007 cycles: 10445345 heartbeat IPC: 3.993 cumulative IPC: 3.829 (Simulation time: 00 hr 03 min 15 sec)
Heartbeat CPU 0 instructions: 50000007 cycles: 12947850 heartbeat IPC: 3.996 cumulative IPC: 3.862 (Simulation time: 00 hr 04 min 05 sec)
Heartbeat CPU 0 instructions: 60000007 cycles: 15447890 heartbeat IPC: 4 cumulative IPC: 3.884 (Simulation time: 00 hr 04 min 56 sec)
Heartbeat CPU 0 instructions: 70000010 cycles: 17948968 heartbeat IPC: 3.998 cumulative IPC: 3.9 (Simulation time: 00 hr 05 min 46 sec)
Heartbeat CPU 0 instructions: 80000010 cycles: 20468601 heartbeat IPC: 3.969 cumulative IPC: 3.908 (Simulation time: 00 hr 06 min 34 sec)
Heartbeat CPU 0 instructions: 90000010 cycles: 23022201 heartbeat IPC: 3.916 cumulative IPC: 3.909 (Simulation time: 00 hr 07 min 16 sec)
Heartbeat CPU 0 instructions: 100000012 cycles: 25812052 heartbeat IPC: 3.584 cumulative IPC: 3.874 (Simulation time: 00 hr 08 min 06 sec)
Heartbeat CPU 0 instructions: 110000015 cycles: 29483479 heartbeat IPC: 2.724 cumulative IPC: 3.731 (Simulation time: 00 hr 09 min 01 sec)
Heartbeat CPU 0 instructions: 120000015 cycles: 31989342 heartbeat IPC: 3.991 cumulative IPC: 3.751 (Simulation time: 00 hr 09 min 50 sec)
Heartbeat CPU 0 instructions: 130000015 cycles: 34491672 heartbeat IPC: 3.996 cumulative IPC: 3.769 (Simulation time: 00 hr 10 min 38 sec)
Heartbeat CPU 0 instructions: 140000016 cycles: 36994216 heartbeat IPC: 3.996 cumulative IPC: 3.784 (Simulation time: 00 hr 11 min 27 sec)
Heartbeat CPU 0 instructions: 150000018 cycles: 39495120 heartbeat IPC: 3.999 cumulative IPC: 3.798 (Simulation time: 00 hr 12 min 17 sec)
Heartbeat CPU 0 instructions: 160000019 cycles: 41995246 heartbeat IPC: 4 cumulative IPC: 3.81 (Simulation time: 00 hr 13 min 07 sec)
Heartbeat CPU 0 instructions: 170000021 cycles: 44495356 heartbeat IPC: 4 cumulative IPC: 3.821 (Simulation time: 00 hr 13 min 56 sec)
Heartbeat CPU 0 instructions: 180000021 cycles: 47002965 heartbeat IPC: 3.988 cumulative IPC: 3.83 (Simulation time: 00 hr 14 min 44 sec)
Heartbeat CPU 0 instructions: 190000023 cycles: 49540351 heartbeat IPC: 3.941 cumulative IPC: 3.835 (Simulation time: 00 hr 15 min 28 sec)
Warmup finished CPU 0 instructions: 200000000 cycles: 52130027 cumulative IPC: 3.837 (Simulation time: 00 hr 16 min 13 sec)
Warmup complete CPU 0 instructions: 200000000 cycles: 52130027 cumulative IPC: 3.837 (Simulation time: 00 hr 16 min 13 sec)
Heartbeat CPU 0 instructions: 200000025 cycles: 52130032 heartbeat IPC: 3.861 cumulative IPC: 5 (Simulation time: 00 hr 16 min 13 sec)
Heartbeat CPU 0 instructions: 210000026 cycles: 74816949 heartbeat IPC: 0.4408 cumulative IPC: 0.4408 (Simulation time: 00 hr 21 min 50 sec)
Heartbeat CPU 0 instructions: 220000030 cycles: 79696765 heartbeat IPC: 2.049 cumulative IPC: 0.7255 (Simulation time: 00 hr 22 min 58 sec)
Heartbeat CPU 0 instructions: 230000032 cycles: 83968962 heartbeat IPC: 2.341 cumulative IPC: 0.9422 (Simulation time: 00 hr 23 min 59 sec)
Heartbeat CPU 0 instructions: 240000035 cycles: 88099392 heartbeat IPC: 2.421 cumulative IPC: 1.112 (Simulation time: 00 hr 25 min 00 sec)
Heartbeat CPU 0 instructions: 250000038 cycles: 92564303 heartbeat IPC: 2.24 cumulative IPC: 1.237 (Simulation time: 00 hr 26 min 03 sec)
Heartbeat CPU 0 instructions: 260000038 cycles: 97575572 heartbeat IPC: 1.996 cumulative IPC: 1.32 (Simulation time: 00 hr 27 min 08 sec)
Heartbeat CPU 0 instructions: 270000039 cycles: 102619253 heartbeat IPC: 1.983 cumulative IPC: 1.386 (Simulation time: 00 hr 28 min 13 sec)
Heartbeat CPU 0 instructions: 280000039 cycles: 107770816 heartbeat IPC: 1.941 cumulative IPC: 1.438 (Simulation time: 00 hr 29 min 17 sec)
Heartbeat CPU 0 instructions: 290000039 cycles: 113512038 heartbeat IPC: 1.742 cumulative IPC: 1.466 (Simulation time: 00 hr 30 min 26 sec)
Heartbeat CPU 0 instructions: 300000040 cycles: 119678978 heartbeat IPC: 1.622 cumulative IPC: 1.48 (Simulation time: 00 hr 31 min 37 sec)
Heartbeat CPU 0 instructions: 310000040 cycles: 143656525 heartbeat IPC: 0.4171 cumulative IPC: 1.202 (Simulation time: 00 hr 37 min 26 sec)
Heartbeat CPU 0 instructions: 320000044 cycles: 148974461 heartbeat IPC: 1.88 cumulative IPC: 1.239 (Simulation time: 00 hr 38 min 39 sec)
Heartbeat CPU 0 instructions: 330000045 cycles: 153307566 heartbeat IPC: 2.308 cumulative IPC: 1.285 (Simulation time: 00 hr 39 min 41 sec)
Heartbeat CPU 0 instructions: 340000048 cycles: 157414466 heartbeat IPC: 2.435 cumulative IPC: 1.33 (Simulation time: 00 hr 40 min 42 sec)
Heartbeat CPU 0 instructions: 350000049 cycles: 161587935 heartbeat IPC: 2.396 cumulative IPC: 1.37 (Simulation time: 00 hr 41 min 43 sec)
Heartbeat CPU 0 instructions: 360000050 cycles: 166284762 heartbeat IPC: 2.129 cumulative IPC: 1.402 (Simulation time: 00 hr 42 min 47 sec)
Heartbeat CPU 0 instructions: 370000052 cycles: 171423178 heartbeat IPC: 1.946 cumulative IPC: 1.425 (Simulation time: 00 hr 43 min 53 sec)
Heartbeat CPU 0 instructions: 380000055 cycles: 176481521 heartbeat IPC: 1.977 cumulative IPC: 1.448 (Simulation time: 00 hr 44 min 56 sec)
Heartbeat CPU 0 instructions: 390000059 cycles: 181951301 heartbeat IPC: 1.828 cumulative IPC: 1.464 (Simulation time: 00 hr 46 min 05 sec)
Heartbeat CPU 0 instructions: 400000061 cycles: 187726571 heartbeat IPC: 1.732 cumulative IPC: 1.475 (Simulation time: 00 hr 47 min 09 sec)
Heartbeat CPU 0 instructions: 410000061 cycles: 197593100 heartbeat IPC: 1.014 cumulative IPC: 1.444 (Simulation time: 00 hr 49 min 17 sec)
Heartbeat CPU 0 instructions: 420000063 cycles: 217802928 heartbeat IPC: 0.4948 cumulative IPC: 1.328 (Simulation time: 00 hr 54 min 17 sec)
Heartbeat CPU 0 instructions: 430000064 cycles: 222426516 heartbeat IPC: 2.163 cumulative IPC: 1.351 (Simulation time: 00 hr 55 min 21 sec)
Heartbeat CPU 0 instructions: 440000064 cycles: 226642673 heartbeat IPC: 2.372 cumulative IPC: 1.375 (Simulation time: 00 hr 56 min 23 sec)
Heartbeat CPU 0 instructions: 450000067 cycles: 230817526 heartbeat IPC: 2.395 cumulative IPC: 1.399 (Simulation time: 00 hr 57 min 25 sec)
Heartbeat CPU 0 instructions: 460000071 cycles: 235517611 heartbeat IPC: 2.128 cumulative IPC: 1.418 (Simulation time: 00 hr 58 min 29 sec)
Heartbeat CPU 0 instructions: 470000073 cycles: 240610583 heartbeat IPC: 1.963 cumulative IPC: 1.433 (Simulation time: 00 hr 59 min 34 sec)
Heartbeat CPU 0 instructions: 480000077 cycles: 245725647 heartbeat IPC: 1.955 cumulative IPC: 1.446 (Simulation time: 01 hr 00 min 39 sec)
Heartbeat CPU 0 instructions: 490000080 cycles: 251057950 heartbeat IPC: 1.875 cumulative IPC: 1.458 (Simulation time: 01 hr 01 min 46 sec)
Heartbeat CPU 0 instructions: 500000082 cycles: 256893216 heartbeat IPC: 1.714 cumulative IPC: 1.465 (Simulation time: 01 hr 02 min 50 sec)
Heartbeat CPU 0 instructions: 510000085 cycles: 264514426 heartbeat IPC: 1.312 cumulative IPC: 1.46 (Simulation time: 01 hr 04 min 26 sec)
Heartbeat CPU 0 instructions: 520000088 cycles: 286977214 heartbeat IPC: 0.4452 cumulative IPC: 1.363 (Simulation time: 01 hr 09 min 58 sec)
Heartbeat CPU 0 instructions: 530000092 cycles: 291584165 heartbeat IPC: 2.171 cumulative IPC: 1.378 (Simulation time: 01 hr 11 min 03 sec)
Heartbeat CPU 0 instructions: 540000092 cycles: 295845855 heartbeat IPC: 2.346 cumulative IPC: 1.395 (Simulation time: 01 hr 12 min 05 sec)
Heartbeat CPU 0 instructions: 550000096 cycles: 299951279 heartbeat IPC: 2.436 cumulative IPC: 1.412 (Simulation time: 01 hr 13 min 06 sec)
Heartbeat CPU 0 instructions: 560000097 cycles: 304527111 heartbeat IPC: 2.185 cumulative IPC: 1.426 (Simulation time: 01 hr 14 min 09 sec)
Heartbeat CPU 0 instructions: 570000098 cycles: 309476599 heartbeat IPC: 2.02 cumulative IPC: 1.438 (Simulation time: 01 hr 15 min 14 sec)
Heartbeat CPU 0 instructions: 580000100 cycles: 314590664 heartbeat IPC: 1.955 cumulative IPC: 1.448 (Simulation time: 01 hr 16 min 18 sec)
Heartbeat CPU 0 instructions: 590000102 cycles: 319847066 heartbeat IPC: 1.902 cumulative IPC: 1.457 (Simulation time: 01 hr 17 min 25 sec)
Heartbeat CPU 0 instructions: 600000104 cycles: 325825773 heartbeat IPC: 1.673 cumulative IPC: 1.461 (Simulation time: 01 hr 18 min 30 sec)
Heartbeat CPU 0 instructions: 610000108 cycles: 333268189 heartbeat IPC: 1.344 cumulative IPC: 1.458 (Simulation time: 01 hr 20 min 04 sec)
Heartbeat CPU 0 instructions: 620000112 cycles: 355778684 heartbeat IPC: 0.4442 cumulative IPC: 1.383 (Simulation time: 01 hr 25 min 37 sec)
Heartbeat CPU 0 instructions: 630000112 cycles: 360482179 heartbeat IPC: 2.126 cumulative IPC: 1.395 (Simulation time: 01 hr 26 min 42 sec)
Heartbeat CPU 0 instructions: 640000116 cycles: 364725902 heartbeat IPC: 2.356 cumulative IPC: 1.408 (Simulation time: 01 hr 27 min 45 sec)
Heartbeat CPU 0 instructions: 650000118 cycles: 369054784 heartbeat IPC: 2.31 cumulative IPC: 1.42 (Simulation time: 01 hr 28 min 47 sec)
Heartbeat CPU 0 instructions: 660000120 cycles: 374081566 heartbeat IPC: 1.989 cumulative IPC: 1.429 (Simulation time: 01 hr 29 min 51 sec)
Heartbeat CPU 0 instructions: 670000120 cycles: 379199187 heartbeat IPC: 1.954 cumulative IPC: 1.437 (Simulation time: 01 hr 30 min 56 sec)
Heartbeat CPU 0 instructions: 680000120 cycles: 384385449 heartbeat IPC: 1.928 cumulative IPC: 1.445 (Simulation time: 01 hr 32 min 01 sec)
Heartbeat CPU 0 instructions: 690000123 cycles: 390091384 heartbeat IPC: 1.753 cumulative IPC: 1.45 (Simulation time: 01 hr 33 min 07 sec)
Heartbeat CPU 0 instructions: 700000125 cycles: 397434511 heartbeat IPC: 1.362 cumulative IPC: 1.448 (Simulation time: 01 hr 34 min 36 sec)
Heartbeat CPU 0 instructions: 710000127 cycles: 420135761 heartbeat IPC: 0.4405 cumulative IPC: 1.386 (Simulation time: 01 hr 40 min 13 sec)
Heartbeat CPU 0 instructions: 720000128 cycles: 425009071 heartbeat IPC: 2.052 cumulative IPC: 1.395 (Simulation time: 01 hr 41 min 20 sec)
Heartbeat CPU 0 instructions: 730000128 cycles: 429442411 heartbeat IPC: 2.256 cumulative IPC: 1.405 (Simulation time: 01 hr 42 min 22 sec)
Heartbeat CPU 0 instructions: 740000132 cycles: 433830878 heartbeat IPC: 2.279 cumulative IPC: 1.415 (Simulation time: 01 hr 43 min 24 sec)
Heartbeat CPU 0 instructions: 750000132 cycles: 438650255 heartbeat IPC: 2.075 cumulative IPC: 1.423 (Simulation time: 01 hr 44 min 28 sec)
Heartbeat CPU 0 instructions: 760000133 cycles: 443706582 heartbeat IPC: 1.978 cumulative IPC: 1.43 (Simulation time: 01 hr 45 min 32 sec)
Heartbeat CPU 0 instructions: 770000135 cycles: 448901258 heartbeat IPC: 1.925 cumulative IPC: 1.437 (Simulation time: 01 hr 46 min 36 sec)
Heartbeat CPU 0 instructions: 780000137 cycles: 454590158 heartbeat IPC: 1.758 cumulative IPC: 1.441 (Simulation time: 01 hr 47 min 44 sec)
Heartbeat CPU 0 instructions: 790000138 cycles: 461116918 heartbeat IPC: 1.532 cumulative IPC: 1.443 (Simulation time: 01 hr 49 min 01 sec)
Heartbeat CPU 0 instructions: 800000140 cycles: 484730405 heartbeat IPC: 0.4235 cumulative IPC: 1.387 (Simulation time: 01 hr 54 min 49 sec)
Heartbeat CPU 0 instructions: 810000144 cycles: 489568080 heartbeat IPC: 2.067 cumulative IPC: 1.394 (Simulation time: 01 hr 55 min 54 sec)
Heartbeat CPU 0 instructions: 820000145 cycles: 493947477 heartbeat IPC: 2.283 cumulative IPC: 1.403 (Simulation time: 01 hr 56 min 56 sec)
Heartbeat CPU 0 instructions: 830000146 cycles: 498484487 heartbeat IPC: 2.204 cumulative IPC: 1.411 (Simulation time: 01 hr 57 min 59 sec)
Heartbeat CPU 0 instructions: 840000148 cycles: 503131183 heartbeat IPC: 2.152 cumulative IPC: 1.419 (Simulation time: 01 hr 59 min 02 sec)
Heartbeat CPU 0 instructions: 850000151 cycles: 508160037 heartbeat IPC: 1.989 cumulative IPC: 1.425 (Simulation time: 02 hr 00 min 07 sec)
Heartbeat CPU 0 instructions: 860000151 cycles: 513287669 heartbeat IPC: 1.95 cumulative IPC: 1.431 (Simulation time: 02 hr 01 min 09 sec)
Heartbeat CPU 0 instructions: 870000151 cycles: 518882622 heartbeat IPC: 1.787 cumulative IPC: 1.435 (Simulation time: 02 hr 02 min 17 sec)
Heartbeat CPU 0 instructions: 880000152 cycles: 525461392 heartbeat IPC: 1.52 cumulative IPC: 1.437 (Simulation time: 02 hr 03 min 34 sec)
Heartbeat CPU 0 instructions: 890000153 cycles: 549144463 heartbeat IPC: 0.4222 cumulative IPC: 1.388 (Simulation time: 02 hr 09 min 23 sec)
Heartbeat CPU 0 instructions: 900000154 cycles: 554023112 heartbeat IPC: 2.05 cumulative IPC: 1.395 (Simulation time: 02 hr 10 min 30 sec)
Heartbeat CPU 0 instructions: 910000154 cycles: 558258177 heartbeat IPC: 2.361 cumulative IPC: 1.403 (Simulation time: 02 hr 11 min 32 sec)
Heartbeat CPU 0 instructions: 920000156 cycles: 562426066 heartbeat IPC: 2.399 cumulative IPC: 1.411 (Simulation time: 02 hr 12 min 33 sec)
Heartbeat CPU 0 instructions: 930000156 cycles: 567189478 heartbeat IPC: 2.099 cumulative IPC: 1.417 (Simulation time: 02 hr 13 min 37 sec)
Heartbeat CPU 0 instructions: 940000156 cycles: 572316544 heartbeat IPC: 1.95 cumulative IPC: 1.423 (Simulation time: 02 hr 14 min 42 sec)
Heartbeat CPU 0 instructions: 950000157 cycles: 577387222 heartbeat IPC: 1.972 cumulative IPC: 1.428 (Simulation time: 02 hr 15 min 47 sec)
Heartbeat CPU 0 instructions: 960000158 cycles: 582554365 heartbeat IPC: 1.935 cumulative IPC: 1.433 (Simulation time: 02 hr 16 min 53 sec)
Heartbeat CPU 0 instructions: 970000162 cycles: 588441972 heartbeat IPC: 1.698 cumulative IPC: 1.436 (Simulation time: 02 hr 17 min 59 sec)
Heartbeat CPU 0 instructions: 980000166 cycles: 595662703 heartbeat IPC: 1.385 cumulative IPC: 1.435 (Simulation time: 02 hr 19 min 28 sec)
Heartbeat CPU 0 instructions: 990000167 cycles: 618419453 heartbeat IPC: 0.4394 cumulative IPC: 1.395 (Simulation time: 02 hr 25 min 04 sec)
Heartbeat CPU 0 instructions: 1000000169 cycles: 623142977 heartbeat IPC: 2.117 cumulative IPC: 1.401 (Simulation time: 02 hr 26 min 10 sec)
Heartbeat CPU 0 instructions: 1010000169 cycles: 627441229 heartbeat IPC: 2.327 cumulative IPC: 1.408 (Simulation time: 02 hr 27 min 11 sec)
Heartbeat CPU 0 instructions: 1020000170 cycles: 631484396 heartbeat IPC: 2.473 cumulative IPC: 1.415 (Simulation time: 02 hr 28 min 12 sec)
Heartbeat CPU 0 instructions: 1030000174 cycles: 636463612 heartbeat IPC: 2.008 cumulative IPC: 1.42 (Simulation time: 02 hr 29 min 16 sec)
Heartbeat CPU 0 instructions: 1040000176 cycles: 641145252 heartbeat IPC: 2.136 cumulative IPC: 1.426 (Simulation time: 02 hr 30 min 19 sec)
Heartbeat CPU 0 instructions: 1050000177 cycles: 646099430 heartbeat IPC: 2.018 cumulative IPC: 1.431 (Simulation time: 02 hr 31 min 21 sec)
Heartbeat CPU 0 instructions: 1060000177 cycles: 651595410 heartbeat IPC: 1.82 cumulative IPC: 1.435 (Simulation time: 02 hr 32 min 30 sec)
Heartbeat CPU 0 instructions: 1070000181 cycles: 657147890 heartbeat IPC: 1.801 cumulative IPC: 1.438 (Simulation time: 02 hr 33 min 32 sec)
Heartbeat CPU 0 instructions: 1080000182 cycles: 676918228 heartbeat IPC: 0.5058 cumulative IPC: 1.408 (Simulation time: 02 hr 38 min 03 sec)
Heartbeat CPU 0 instructions: 1090000182 cycles: 687401024 heartbeat IPC: 0.9539 cumulative IPC: 1.401 (Simulation time: 02 hr 40 min 32 sec)
Heartbeat CPU 0 instructions: 1100000186 cycles: 691736775 heartbeat IPC: 2.306 cumulative IPC: 1.407 (Simulation time: 02 hr 41 min 34 sec)
Heartbeat CPU 0 instructions: 1110000186 cycles: 695882576 heartbeat IPC: 2.412 cumulative IPC: 1.414 (Simulation time: 02 hr 42 min 36 sec)
Heartbeat CPU 0 instructions: 1120000187 cycles: 699980330 heartbeat IPC: 2.44 cumulative IPC: 1.42 (Simulation time: 02 hr 43 min 36 sec)
Heartbeat CPU 0 instructions: 1130000189 cycles: 705112697 heartbeat IPC: 1.948 cumulative IPC: 1.424 (Simulation time: 02 hr 44 min 41 sec)
Heartbeat CPU 0 instructions: 1140000190 cycles: 710305310 heartbeat IPC: 1.926 cumulative IPC: 1.428 (Simulation time: 02 hr 45 min 47 sec)
Heartbeat CPU 0 instructions: 1150000191 cycles: 715223836 heartbeat IPC: 2.033 cumulative IPC: 1.433 (Simulation time: 02 hr 46 min 48 sec)
Heartbeat CPU 0 instructions: 1160000195 cycles: 720915891 heartbeat IPC: 1.757 cumulative IPC: 1.435 (Simulation time: 02 hr 47 min 58 sec)
Heartbeat CPU 0 instructions: 1170000195 cycles: 726581053 heartbeat IPC: 1.765 cumulative IPC: 1.438 (Simulation time: 02 hr 49 min 04 sec)
Heartbeat CPU 0 instructions: 1180000196 cycles: 747257755 heartbeat IPC: 0.4836 cumulative IPC: 1.41 (Simulation time: 02 hr 53 min 48 sec)
Heartbeat CPU 0 instructions: 1190000196 cycles: 756547140 heartbeat IPC: 1.076 cumulative IPC: 1.405 (Simulation time: 02 hr 55 min 58 sec)
Simulation finished CPU 0 instructions: 1000000002 cycles: 708793544 cumulative IPC: 1.411 (Simulation time: 02 hr 57 min 00 sec)
Simulation complete CPU 0 instructions: 1000000002 cycles: 708793544 cumulative IPC: 1.411 (Simulation time: 02 hr 57 min 00 sec)

ChampSim completed all CPUs

=== Simulation ===
CPU 0 runs /home/grads/r/raveena_manasi/ECEN_676/ChampSim/dpc3_traces/627.cam4_s-573B.champsimtrace.xz

Region of Interest Statistics

CPU 0 cumulative IPC: 1.411 instructions: 1000000002 cycles: 708793544
CPU 0 Branch Prediction Accuracy: 95.41% MPKI: 6.142 Average ROB Occupancy at Mispredict: 61.66
Branch type MPKI
BRANCH_DIRECT_JUMP: 0.005034
BRANCH_INDIRECT: 0.001319
BRANCH_CONDITIONAL: 5.486
BRANCH_DIRECT_CALL: 0.01669
BRANCH_INDIRECT_CALL: 0
BRANCH_RETURN: 0.6329

cpu0->cpu0_STLB TOTAL        ACCESS:     656080 HIT:     551347 MISS:     104733 MSHR_MERGE:          0
cpu0->cpu0_STLB LOAD         ACCESS:     656080 HIT:     551347 MISS:     104733 MSHR_MERGE:          0
cpu0->cpu0_STLB RFO          ACCESS:          0 HIT:          0 MISS:          0 MSHR_MERGE:          0
cpu0->cpu0_STLB PREFETCH     ACCESS:          0 HIT:          0 MISS:          0 MSHR_MERGE:          0
cpu0->cpu0_STLB WRITE        ACCESS:          0 HIT:          0 MISS:          0 MSHR_MERGE:          0
cpu0->cpu0_STLB TRANSLATION  ACCESS:          0 HIT:          0 MISS:          0 MSHR_MERGE:          0
cpu0->cpu0_STLB PREFETCH REQUESTED:          0 ISSUED:          0 USEFUL:          0 USELESS:          0
cpu0->cpu0_STLB AVERAGE MISS LATENCY: 47.87 cycles
cpu0->cpu0_L2C TOTAL        ACCESS:   28476164 HIT:   20372295 MISS:    8103869 MSHR_MERGE:     308257
cpu0->cpu0_L2C LOAD         ACCESS:    3526894 HIT:    2895935 MISS:     630959 MSHR_MERGE:      30730
cpu0->cpu0_L2C RFO          ACCESS:    6667202 HIT:    1321311 MISS:    5345891 MSHR_MERGE:          8
cpu0->cpu0_L2C PREFETCH     ACCESS:   11146875 HIT:    9036849 MISS:    2110026 MSHR_MERGE:     277519
cpu0->cpu0_L2C WRITE        ACCESS:    7111755 HIT:    7111298 MISS:        457 MSHR_MERGE:          0
cpu0->cpu0_L2C TRANSLATION  ACCESS:      23438 HIT:       6902 MISS:      16536 MSHR_MERGE:          0
cpu0->cpu0_L2C PREFETCH REQUESTED:   15059705 ISSUED:   11146875 USEFUL:     128991 USELESS:       4085
cpu0->cpu0_L2C AVERAGE MISS LATENCY: 603.8 cycles
cpu0->cpu0_L1I TOTAL        ACCESS:  104482736 HIT:  103858804 MISS:     623932 MSHR_MERGE:     216767
cpu0->cpu0_L1I LOAD         ACCESS:  104482736 HIT:  103858804 MISS:     623932 MSHR_MERGE:     216767
cpu0->cpu0_L1I RFO          ACCESS:          0 HIT:          0 MISS:          0 MSHR_MERGE:          0
cpu0->cpu0_L1I PREFETCH     ACCESS:          0 HIT:          0 MISS:          0 MSHR_MERGE:          0
cpu0->cpu0_L1I WRITE        ACCESS:          0 HIT:          0 MISS:          0 MSHR_MERGE:          0
cpu0->cpu0_L1I TRANSLATION  ACCESS:          0 HIT:          0 MISS:          0 MSHR_MERGE:          0
cpu0->cpu0_L1I PREFETCH REQUESTED:          0 ISSUED:          0 USEFUL:          0 USELESS:          0
cpu0->cpu0_L1I AVERAGE MISS LATENCY: 39.8 cycles
cpu0->cpu0_L1D TOTAL        ACCESS:  228423879 HIT:  197578469 MISS:   30845410 MSHR_MERGE:   21034969
cpu0->cpu0_L1D LOAD         ACCESS:  125099922 HIT:  119816300 MISS:    5283622 MSHR_MERGE:    2163869
cpu0->cpu0_L1D RFO          ACCESS:          0 HIT:          0 MISS:          0 MSHR_MERGE:          0
cpu0->cpu0_L1D PREFETCH     ACCESS:          0 HIT:          0 MISS:          0 MSHR_MERGE:          0
cpu0->cpu0_L1D WRITE        ACCESS:  103217349 HIT:   77679127 MISS:   25538222 MSHR_MERGE:   18870972
cpu0->cpu0_L1D TRANSLATION  ACCESS:     106608 HIT:      83042 MISS:      23566 MSHR_MERGE:        128
cpu0->cpu0_L1D PREFETCH REQUESTED:          0 ISSUED:          0 USEFUL:          0 USELESS:          0
cpu0->cpu0_L1D AVERAGE MISS LATENCY: 376.7 cycles
cpu0->cpu0_ITLB TOTAL        ACCESS:   89370322 HIT:   89345948 MISS:      24374 MSHR_MERGE:      12736
cpu0->cpu0_ITLB LOAD         ACCESS:   89370322 HIT:   89345948 MISS:      24374 MSHR_MERGE:      12736
cpu0->cpu0_ITLB RFO          ACCESS:          0 HIT:          0 MISS:          0 MSHR_MERGE:          0
cpu0->cpu0_ITLB PREFETCH     ACCESS:          0 HIT:          0 MISS:          0 MSHR_MERGE:          0
cpu0->cpu0_ITLB WRITE        ACCESS:          0 HIT:          0 MISS:          0 MSHR_MERGE:          0
cpu0->cpu0_ITLB TRANSLATION  ACCESS:          0 HIT:          0 MISS:          0 MSHR_MERGE:          0
cpu0->cpu0_ITLB PREFETCH REQUESTED:          0 ISSUED:          0 USEFUL:          0 USELESS:          0
cpu0->cpu0_ITLB AVERAGE MISS LATENCY: 45.66 cycles
cpu0->cpu0_DTLB TOTAL        ACCESS:  218969678 HIT:  216925887 MISS:    2043791 MSHR_MERGE:    1399349
cpu0->cpu0_DTLB LOAD         ACCESS:  218969678 HIT:  216925887 MISS:    2043791 MSHR_MERGE:    1399349
cpu0->cpu0_DTLB RFO          ACCESS:          0 HIT:          0 MISS:          0 MSHR_MERGE:          0
cpu0->cpu0_DTLB PREFETCH     ACCESS:          0 HIT:          0 MISS:          0 MSHR_MERGE:          0
cpu0->cpu0_DTLB WRITE        ACCESS:          0 HIT:          0 MISS:          0 MSHR_MERGE:          0
cpu0->cpu0_DTLB TRANSLATION  ACCESS:          0 HIT:          0 MISS:          0 MSHR_MERGE:          0
cpu0->cpu0_DTLB PREFETCH REQUESTED:          0 ISSUED:          0 USEFUL:          0 USELESS:          0
cpu0->cpu0_DTLB AVERAGE MISS LATENCY: 12.21 cycles
cpu0->LLC TOTAL        ACCESS:   13224315 HIT:    7367695 MISS:    5856620 MSHR_MERGE:     143886
cpu0->LLC LOAD         ACCESS:     600228 HIT:     343112 MISS:     257116 MSHR_MERGE:      45843
cpu0->LLC RFO          ACCESS:    5345883 HIT:     124713 MISS:    5221170 MSHR_MERGE:         17
cpu0->LLC PREFETCH     ACCESS:    1821431 HIT:    1464833 MISS:     356598 MSHR_MERGE:      98026
cpu0->LLC WRITE        ACCESS:    5440237 HIT:    5433516 MISS:       6721 MSHR_MERGE:          0
cpu0->LLC TRANSLATION  ACCESS:      16536 HIT:       1521 MISS:      15015 MSHR_MERGE:          0
cpu0->LLC PREFETCH REQUESTED:          0 ISSUED:          0 USEFUL:          0 USELESS:          0
cpu0->LLC AVERAGE MISS LATENCY: 639.5 cycles

DRAM Statistics

Channel 0 RQ ROW_BUFFER_HIT:     284261
  ROW_BUFFER_MISS:    5421607
  AVG DBUS CONGESTED CYCLE: 6.488
Channel 0 WQ ROW_BUFFER_HIT:     539515
  ROW_BUFFER_MISS:    4714208
  FULL:          0
Channel 0 REFRESHES ISSUED:      59066
