[VMEM] WARNING: physical memory size is smaller than virtual memory size.
WARNING: option --warmup_instructions is deprecated. Use --warmup-instructions instead.
WARNING: option --simulation_instructions is deprecated. Use --simulation-instructions instead.

*** ChampSim Multicore Out-of-Order Simulator ***
Warmup Instructions: 200000000
Simulation Instructions: 1000000000
Number of CPUs: 1
Page size: 4096

Initialize SIGNATURE TABLE
ST_SET: 1
ST_WAY: 256
ST_TAG_BIT: 16

Initialize PATTERN TABLE
PT_SET: 512
PT_WAY: 4
SIG_DELTA_BIT: 7
C_SIG_BIT: 4
C_DELTA_BIT: 4

Initialize PREFETCH FILTER
FILTER_SET: 1024
Off-chip DRAM Size: 16 GiB Channels: 1 Width: 64-bit Data Rate: 3205 MT/s
Heartbeat CPU 0 instructions: 10000002 cycles: 2712967 heartbeat IPC: 3.686 cumulative IPC: 3.686 (Simulation time: 00 hr 00 min 50 sec)
Heartbeat CPU 0 instructions: 20000005 cycles: 5374628 heartbeat IPC: 3.757 cumulative IPC: 3.721 (Simulation time: 00 hr 01 min 39 sec)
Heartbeat CPU 0 instructions: 30000006 cycles: 8035319 heartbeat IPC: 3.758 cumulative IPC: 3.734 (Simulation time: 00 hr 02 min 29 sec)
Heartbeat CPU 0 instructions: 40000007 cycles: 10699483 heartbeat IPC: 3.754 cumulative IPC: 3.738 (Simulation time: 00 hr 03 min 18 sec)
Heartbeat CPU 0 instructions: 50000009 cycles: 13364716 heartbeat IPC: 3.752 cumulative IPC: 3.741 (Simulation time: 00 hr 04 min 06 sec)
Heartbeat CPU 0 instructions: 60000011 cycles: 16030986 heartbeat IPC: 3.751 cumulative IPC: 3.743 (Simulation time: 00 hr 04 min 55 sec)
Heartbeat CPU 0 instructions: 70000012 cycles: 18702048 heartbeat IPC: 3.744 cumulative IPC: 3.743 (Simulation time: 00 hr 05 min 44 sec)
Heartbeat CPU 0 instructions: 80000015 cycles: 21310232 heartbeat IPC: 3.834 cumulative IPC: 3.754 (Simulation time: 00 hr 06 min 33 sec)
Heartbeat CPU 0 instructions: 90000019 cycles: 23942092 heartbeat IPC: 3.8 cumulative IPC: 3.759 (Simulation time: 00 hr 07 min 18 sec)
Heartbeat CPU 0 instructions: 100000019 cycles: 26524072 heartbeat IPC: 3.873 cumulative IPC: 3.77 (Simulation time: 00 hr 08 min 06 sec)
Heartbeat CPU 0 instructions: 110000022 cycles: 29144170 heartbeat IPC: 3.817 cumulative IPC: 3.774 (Simulation time: 00 hr 08 min 54 sec)
Heartbeat CPU 0 instructions: 120000022 cycles: 31986863 heartbeat IPC: 3.518 cumulative IPC: 3.752 (Simulation time: 00 hr 09 min 39 sec)
Heartbeat CPU 0 instructions: 130000024 cycles: 34745744 heartbeat IPC: 3.625 cumulative IPC: 3.741 (Simulation time: 00 hr 10 min 24 sec)
Heartbeat CPU 0 instructions: 140000025 cycles: 37636471 heartbeat IPC: 3.459 cumulative IPC: 3.72 (Simulation time: 00 hr 11 min 04 sec)
Heartbeat CPU 0 instructions: 150000025 cycles: 40356711 heartbeat IPC: 3.676 cumulative IPC: 3.717 (Simulation time: 00 hr 11 min 41 sec)
Heartbeat CPU 0 instructions: 160000029 cycles: 43265243 heartbeat IPC: 3.438 cumulative IPC: 3.698 (Simulation time: 00 hr 12 min 18 sec)
Heartbeat CPU 0 instructions: 170000032 cycles: 45985550 heartbeat IPC: 3.676 cumulative IPC: 3.697 (Simulation time: 00 hr 12 min 57 sec)
Heartbeat CPU 0 instructions: 180000036 cycles: 48648526 heartbeat IPC: 3.755 cumulative IPC: 3.7 (Simulation time: 00 hr 13 min 40 sec)
Heartbeat CPU 0 instructions: 190000038 cycles: 51266190 heartbeat IPC: 3.82 cumulative IPC: 3.706 (Simulation time: 00 hr 14 min 28 sec)
Warmup finished CPU 0 instructions: 200000001 cycles: 53885734 cumulative IPC: 3.712 (Simulation time: 00 hr 15 min 16 sec)
Warmup complete CPU 0 instructions: 200000001 cycles: 53885734 cumulative IPC: 3.712 (Simulation time: 00 hr 15 min 16 sec)
Heartbeat CPU 0 instructions: 200000041 cycles: 53885744 heartbeat IPC: 3.817 cumulative IPC: 4 (Simulation time: 00 hr 15 min 16 sec)
Heartbeat CPU 0 instructions: 210000041 cycles: 58647545 heartbeat IPC: 2.1 cumulative IPC: 2.1 (Simulation time: 00 hr 16 min 21 sec)
Heartbeat CPU 0 instructions: 220000041 cycles: 63400250 heartbeat IPC: 2.104 cumulative IPC: 2.102 (Simulation time: 00 hr 17 min 28 sec)
Heartbeat CPU 0 instructions: 230000045 cycles: 68155903 heartbeat IPC: 2.103 cumulative IPC: 2.102 (Simulation time: 00 hr 18 min 35 sec)
Heartbeat CPU 0 instructions: 240000046 cycles: 72924286 heartbeat IPC: 2.097 cumulative IPC: 2.101 (Simulation time: 00 hr 19 min 43 sec)
Heartbeat CPU 0 instructions: 250000049 cycles: 77517276 heartbeat IPC: 2.177 cumulative IPC: 2.116 (Simulation time: 00 hr 20 min 48 sec)
Heartbeat CPU 0 instructions: 260000049 cycles: 81824562 heartbeat IPC: 2.322 cumulative IPC: 2.148 (Simulation time: 00 hr 21 min 48 sec)
Heartbeat CPU 0 instructions: 270000051 cycles: 86978876 heartbeat IPC: 1.94 cumulative IPC: 2.115 (Simulation time: 00 hr 22 min 49 sec)
Heartbeat CPU 0 instructions: 280000051 cycles: 91870073 heartbeat IPC: 2.044 cumulative IPC: 2.106 (Simulation time: 00 hr 23 min 54 sec)
Heartbeat CPU 0 instructions: 290000055 cycles: 97102169 heartbeat IPC: 1.911 cumulative IPC: 2.083 (Simulation time: 00 hr 25 min 12 sec)
Heartbeat CPU 0 instructions: 300000055 cycles: 102541738 heartbeat IPC: 1.838 cumulative IPC: 2.055 (Simulation time: 00 hr 26 min 29 sec)
Heartbeat CPU 0 instructions: 310000056 cycles: 107450931 heartbeat IPC: 2.037 cumulative IPC: 2.054 (Simulation time: 00 hr 27 min 31 sec)
Heartbeat CPU 0 instructions: 320000059 cycles: 112215529 heartbeat IPC: 2.099 cumulative IPC: 2.057 (Simulation time: 00 hr 28 min 32 sec)
Heartbeat CPU 0 instructions: 330000063 cycles: 116348148 heartbeat IPC: 2.42 cumulative IPC: 2.081 (Simulation time: 00 hr 29 min 25 sec)
Heartbeat CPU 0 instructions: 340000066 cycles: 121122810 heartbeat IPC: 2.094 cumulative IPC: 2.082 (Simulation time: 00 hr 30 min 22 sec)
Heartbeat CPU 0 instructions: 350000066 cycles: 125170675 heartbeat IPC: 2.47 cumulative IPC: 2.104 (Simulation time: 00 hr 31 min 14 sec)
Heartbeat CPU 0 instructions: 360000068 cycles: 130187329 heartbeat IPC: 1.993 cumulative IPC: 2.097 (Simulation time: 00 hr 32 min 21 sec)
Heartbeat CPU 0 instructions: 370000071 cycles: 135175107 heartbeat IPC: 2.005 cumulative IPC: 2.091 (Simulation time: 00 hr 33 min 30 sec)
Heartbeat CPU 0 instructions: 380000071 cycles: 140179659 heartbeat IPC: 1.998 cumulative IPC: 2.086 (Simulation time: 00 hr 34 min 39 sec)
Heartbeat CPU 0 instructions: 390000074 cycles: 145183859 heartbeat IPC: 1.998 cumulative IPC: 2.081 (Simulation time: 00 hr 35 min 48 sec)
Heartbeat CPU 0 instructions: 400000075 cycles: 150155869 heartbeat IPC: 2.011 cumulative IPC: 2.077 (Simulation time: 00 hr 36 min 56 sec)
Heartbeat CPU 0 instructions: 410000077 cycles: 155128149 heartbeat IPC: 2.011 cumulative IPC: 2.074 (Simulation time: 00 hr 38 min 03 sec)
Heartbeat CPU 0 instructions: 420000080 cycles: 160053359 heartbeat IPC: 2.03 cumulative IPC: 2.072 (Simulation time: 00 hr 39 min 10 sec)
Heartbeat CPU 0 instructions: 430000081 cycles: 164847628 heartbeat IPC: 2.086 cumulative IPC: 2.073 (Simulation time: 00 hr 40 min 18 sec)
Heartbeat CPU 0 instructions: 440000085 cycles: 169022657 heartbeat IPC: 2.395 cumulative IPC: 2.084 (Simulation time: 00 hr 41 min 18 sec)
Heartbeat CPU 0 instructions: 450000085 cycles: 174497072 heartbeat IPC: 1.827 cumulative IPC: 2.073 (Simulation time: 00 hr 42 min 23 sec)
Heartbeat CPU 0 instructions: 460000085 cycles: 179443784 heartbeat IPC: 2.022 cumulative IPC: 2.071 (Simulation time: 00 hr 43 min 29 sec)
Heartbeat CPU 0 instructions: 470000087 cycles: 184555506 heartbeat IPC: 1.956 cumulative IPC: 2.066 (Simulation time: 00 hr 44 min 46 sec)
Heartbeat CPU 0 instructions: 480000089 cycles: 190158584 heartbeat IPC: 1.785 cumulative IPC: 2.055 (Simulation time: 00 hr 46 min 10 sec)
Heartbeat CPU 0 instructions: 490000092 cycles: 194722085 heartbeat IPC: 2.191 cumulative IPC: 2.059 (Simulation time: 00 hr 47 min 07 sec)
Heartbeat CPU 0 instructions: 500000094 cycles: 199932328 heartbeat IPC: 1.919 cumulative IPC: 2.054 (Simulation time: 00 hr 48 min 14 sec)
Heartbeat CPU 0 instructions: 510000096 cycles: 203730767 heartbeat IPC: 2.633 cumulative IPC: 2.069 (Simulation time: 00 hr 49 min 02 sec)
Heartbeat CPU 0 instructions: 520000099 cycles: 208669470 heartbeat IPC: 2.025 cumulative IPC: 2.067 (Simulation time: 00 hr 50 min 04 sec)
Heartbeat CPU 0 instructions: 530000099 cycles: 212559440 heartbeat IPC: 2.571 cumulative IPC: 2.08 (Simulation time: 00 hr 50 min 52 sec)
Heartbeat CPU 0 instructions: 540000099 cycles: 217378788 heartbeat IPC: 2.075 cumulative IPC: 2.08 (Simulation time: 00 hr 51 min 55 sec)
Heartbeat CPU 0 instructions: 550000099 cycles: 222308013 heartbeat IPC: 2.029 cumulative IPC: 2.078 (Simulation time: 00 hr 53 min 02 sec)
Heartbeat CPU 0 instructions: 560000102 cycles: 227222277 heartbeat IPC: 2.035 cumulative IPC: 2.077 (Simulation time: 00 hr 54 min 09 sec)
Heartbeat CPU 0 instructions: 570000102 cycles: 232137100 heartbeat IPC: 2.035 cumulative IPC: 2.076 (Simulation time: 00 hr 55 min 16 sec)
Heartbeat CPU 0 instructions: 580000103 cycles: 237047363 heartbeat IPC: 2.037 cumulative IPC: 2.075 (Simulation time: 00 hr 56 min 24 sec)
Heartbeat CPU 0 instructions: 590000105 cycles: 241966482 heartbeat IPC: 2.033 cumulative IPC: 2.074 (Simulation time: 00 hr 57 min 31 sec)
Heartbeat CPU 0 instructions: 600000105 cycles: 246877475 heartbeat IPC: 2.036 cumulative IPC: 2.073 (Simulation time: 00 hr 58 min 38 sec)
Heartbeat CPU 0 instructions: 610000107 cycles: 251828807 heartbeat IPC: 2.02 cumulative IPC: 2.071 (Simulation time: 00 hr 59 min 45 sec)
Heartbeat CPU 0 instructions: 620000109 cycles: 255823305 heartbeat IPC: 2.503 cumulative IPC: 2.08 (Simulation time: 01 hr 00 min 41 sec)
Heartbeat CPU 0 instructions: 630000113 cycles: 261447598 heartbeat IPC: 1.778 cumulative IPC: 2.072 (Simulation time: 01 hr 01 min 49 sec)
Heartbeat CPU 0 instructions: 640000115 cycles: 266714236 heartbeat IPC: 1.899 cumulative IPC: 2.067 (Simulation time: 01 hr 02 min 53 sec)
Heartbeat CPU 0 instructions: 650000117 cycles: 271691039 heartbeat IPC: 2.009 cumulative IPC: 2.066 (Simulation time: 01 hr 04 min 05 sec)
Heartbeat CPU 0 instructions: 660000119 cycles: 277598624 heartbeat IPC: 1.693 cumulative IPC: 2.056 (Simulation time: 01 hr 05 min 35 sec)
Heartbeat CPU 0 instructions: 670000122 cycles: 282038386 heartbeat IPC: 2.252 cumulative IPC: 2.06 (Simulation time: 01 hr 06 min 27 sec)
Heartbeat CPU 0 instructions: 680000124 cycles: 287916507 heartbeat IPC: 1.701 cumulative IPC: 2.051 (Simulation time: 01 hr 07 min 40 sec)
Heartbeat CPU 0 instructions: 690000126 cycles: 291313335 heartbeat IPC: 2.944 cumulative IPC: 2.064 (Simulation time: 01 hr 08 min 21 sec)
Heartbeat CPU 0 instructions: 700000126 cycles: 295625400 heartbeat IPC: 2.319 cumulative IPC: 2.068 (Simulation time: 01 hr 09 min 18 sec)
Heartbeat CPU 0 instructions: 710000128 cycles: 300508162 heartbeat IPC: 2.048 cumulative IPC: 2.068 (Simulation time: 01 hr 10 min 21 sec)
Heartbeat CPU 0 instructions: 720000132 cycles: 304821162 heartbeat IPC: 2.319 cumulative IPC: 2.072 (Simulation time: 01 hr 11 min 19 sec)
Heartbeat CPU 0 instructions: 730000132 cycles: 310091051 heartbeat IPC: 1.898 cumulative IPC: 2.069 (Simulation time: 01 hr 12 min 33 sec)
Heartbeat CPU 0 instructions: 740000132 cycles: 314963696 heartbeat IPC: 2.052 cumulative IPC: 2.068 (Simulation time: 01 hr 13 min 42 sec)
Heartbeat CPU 0 instructions: 750000132 cycles: 319896924 heartbeat IPC: 2.027 cumulative IPC: 2.068 (Simulation time: 01 hr 14 min 52 sec)
Heartbeat CPU 0 instructions: 760000133 cycles: 324810628 heartbeat IPC: 2.035 cumulative IPC: 2.067 (Simulation time: 01 hr 16 min 01 sec)
Heartbeat CPU 0 instructions: 770000133 cycles: 329728305 heartbeat IPC: 2.033 cumulative IPC: 2.066 (Simulation time: 01 hr 17 min 09 sec)
Heartbeat CPU 0 instructions: 780000135 cycles: 334699137 heartbeat IPC: 2.012 cumulative IPC: 2.065 (Simulation time: 01 hr 18 min 17 sec)
Heartbeat CPU 0 instructions: 790000137 cycles: 339687288 heartbeat IPC: 2.005 cumulative IPC: 2.064 (Simulation time: 01 hr 19 min 24 sec)
Heartbeat CPU 0 instructions: 800000141 cycles: 344104664 heartbeat IPC: 2.264 cumulative IPC: 2.067 (Simulation time: 01 hr 20 min 24 sec)
Heartbeat CPU 0 instructions: 810000142 cycles: 348875504 heartbeat IPC: 2.096 cumulative IPC: 2.068 (Simulation time: 01 hr 21 min 27 sec)
Heartbeat CPU 0 instructions: 820000145 cycles: 354284056 heartbeat IPC: 1.849 cumulative IPC: 2.064 (Simulation time: 01 hr 22 min 30 sec)
Heartbeat CPU 0 instructions: 830000145 cycles: 359228399 heartbeat IPC: 2.023 cumulative IPC: 2.063 (Simulation time: 01 hr 23 min 39 sec)
Heartbeat CPU 0 instructions: 840000145 cycles: 364315368 heartbeat IPC: 1.966 cumulative IPC: 2.062 (Simulation time: 01 hr 24 min 54 sec)
Heartbeat CPU 0 instructions: 850000145 cycles: 369713684 heartbeat IPC: 1.852 cumulative IPC: 2.058 (Simulation time: 01 hr 26 min 06 sec)
Heartbeat CPU 0 instructions: 860000149 cycles: 374768957 heartbeat IPC: 1.978 cumulative IPC: 2.057 (Simulation time: 01 hr 27 min 11 sec)
Heartbeat CPU 0 instructions: 870000150 cycles: 379463894 heartbeat IPC: 2.13 cumulative IPC: 2.058 (Simulation time: 01 hr 28 min 10 sec)
Heartbeat CPU 0 instructions: 880000152 cycles: 383591014 heartbeat IPC: 2.423 cumulative IPC: 2.062 (Simulation time: 01 hr 29 min 06 sec)
Heartbeat CPU 0 instructions: 890000152 cycles: 388559738 heartbeat IPC: 2.013 cumulative IPC: 2.062 (Simulation time: 01 hr 30 min 08 sec)
Heartbeat CPU 0 instructions: 900000155 cycles: 392613421 heartbeat IPC: 2.467 cumulative IPC: 2.067 (Simulation time: 01 hr 31 min 01 sec)
Heartbeat CPU 0 instructions: 910000155 cycles: 397556904 heartbeat IPC: 2.023 cumulative IPC: 2.066 (Simulation time: 01 hr 32 min 09 sec)
Heartbeat CPU 0 instructions: 920000155 cycles: 402398975 heartbeat IPC: 2.065 cumulative IPC: 2.066 (Simulation time: 01 hr 33 min 17 sec)
Heartbeat CPU 0 instructions: 930000155 cycles: 407255458 heartbeat IPC: 2.059 cumulative IPC: 2.066 (Simulation time: 01 hr 34 min 25 sec)
Heartbeat CPU 0 instructions: 940000155 cycles: 412102292 heartbeat IPC: 2.063 cumulative IPC: 2.066 (Simulation time: 01 hr 35 min 34 sec)
Heartbeat CPU 0 instructions: 950000159 cycles: 416927648 heartbeat IPC: 2.072 cumulative IPC: 2.066 (Simulation time: 01 hr 36 min 42 sec)
Heartbeat CPU 0 instructions: 960000159 cycles: 421751741 heartbeat IPC: 2.073 cumulative IPC: 2.066 (Simulation time: 01 hr 37 min 50 sec)
Heartbeat CPU 0 instructions: 970000162 cycles: 426731817 heartbeat IPC: 2.008 cumulative IPC: 2.065 (Simulation time: 01 hr 38 min 59 sec)
Heartbeat CPU 0 instructions: 980000162 cycles: 431754410 heartbeat IPC: 1.991 cumulative IPC: 2.064 (Simulation time: 01 hr 40 min 07 sec)
Heartbeat CPU 0 instructions: 990000162 cycles: 435873334 heartbeat IPC: 2.428 cumulative IPC: 2.068 (Simulation time: 01 hr 41 min 05 sec)
Heartbeat CPU 0 instructions: 1000000165 cycles: 441339884 heartbeat IPC: 1.829 cumulative IPC: 2.065 (Simulation time: 01 hr 42 min 11 sec)
Heartbeat CPU 0 instructions: 1010000167 cycles: 446351737 heartbeat IPC: 1.995 cumulative IPC: 2.064 (Simulation time: 01 hr 43 min 18 sec)
Heartbeat CPU 0 instructions: 1020000167 cycles: 451456180 heartbeat IPC: 1.959 cumulative IPC: 2.063 (Simulation time: 01 hr 44 min 33 sec)
Heartbeat CPU 0 instructions: 1030000168 cycles: 457147703 heartbeat IPC: 1.757 cumulative IPC: 2.058 (Simulation time: 01 hr 45 min 58 sec)
Heartbeat CPU 0 instructions: 1040000168 cycles: 461852705 heartbeat IPC: 2.125 cumulative IPC: 2.059 (Simulation time: 01 hr 46 min 54 sec)
Heartbeat CPU 0 instructions: 1050000169 cycles: 467368112 heartbeat IPC: 1.813 cumulative IPC: 2.056 (Simulation time: 01 hr 48 min 04 sec)
Heartbeat CPU 0 instructions: 1060000170 cycles: 471110361 heartbeat IPC: 2.672 cumulative IPC: 2.061 (Simulation time: 01 hr 48 min 52 sec)
Heartbeat CPU 0 instructions: 1070000173 cycles: 476309521 heartbeat IPC: 1.923 cumulative IPC: 2.06 (Simulation time: 01 hr 49 min 59 sec)
Heartbeat CPU 0 instructions: 1080000174 cycles: 480265222 heartbeat IPC: 2.528 cumulative IPC: 2.064 (Simulation time: 01 hr 50 min 48 sec)
Heartbeat CPU 0 instructions: 1090000174 cycles: 484949901 heartbeat IPC: 2.135 cumulative IPC: 2.065 (Simulation time: 01 hr 51 min 50 sec)
Heartbeat CPU 0 instructions: 1100000174 cycles: 489974045 heartbeat IPC: 1.99 cumulative IPC: 2.064 (Simulation time: 01 hr 53 min 01 sec)
Heartbeat CPU 0 instructions: 1110000176 cycles: 494860963 heartbeat IPC: 2.046 cumulative IPC: 2.064 (Simulation time: 01 hr 54 min 10 sec)
Heartbeat CPU 0 instructions: 1120000178 cycles: 499724578 heartbeat IPC: 2.056 cumulative IPC: 2.064 (Simulation time: 01 hr 55 min 18 sec)
Heartbeat CPU 0 instructions: 1130000178 cycles: 504641090 heartbeat IPC: 2.034 cumulative IPC: 2.063 (Simulation time: 01 hr 56 min 28 sec)
Heartbeat CPU 0 instructions: 1140000180 cycles: 509544897 heartbeat IPC: 2.039 cumulative IPC: 2.063 (Simulation time: 01 hr 57 min 37 sec)
Heartbeat CPU 0 instructions: 1150000182 cycles: 514457372 heartbeat IPC: 2.036 cumulative IPC: 2.063 (Simulation time: 01 hr 58 min 45 sec)
Heartbeat CPU 0 instructions: 1160000183 cycles: 519526707 heartbeat IPC: 1.973 cumulative IPC: 2.062 (Simulation time: 01 hr 59 min 54 sec)
Heartbeat CPU 0 instructions: 1170000187 cycles: 523696505 heartbeat IPC: 2.398 cumulative IPC: 2.065 (Simulation time: 02 hr 00 min 52 sec)
Heartbeat CPU 0 instructions: 1180000187 cycles: 528910951 heartbeat IPC: 1.918 cumulative IPC: 2.063 (Simulation time: 02 hr 01 min 59 sec)
Heartbeat CPU 0 instructions: 1190000188 cycles: 534213102 heartbeat IPC: 1.886 cumulative IPC: 2.061 (Simulation time: 02 hr 03 min 04 sec)
Simulation finished CPU 0 instructions: 1000000000 cycles: 485307579 cumulative IPC: 2.061 (Simulation time: 02 hr 04 min 16 sec)
Simulation complete CPU 0 instructions: 1000000000 cycles: 485307579 cumulative IPC: 2.061 (Simulation time: 02 hr 04 min 16 sec)

ChampSim completed all CPUs

=== Simulation ===
CPU 0 runs /home/grads/b/bhavishya_k_s/ecen676/ChampSim/dpc3_traces/628.pop2_s-17B.champsimtrace.xz

Region of Interest Statistics

CPU 0 cumulative IPC: 2.061 instructions: 1000000000 cycles: 485307579
CPU 0 Branch Prediction Accuracy: 97.22% MPKI: 4.223 Average ROB Occupancy at Mispredict: 77.52
Branch type MPKI
BRANCH_DIRECT_JUMP: 0.02936
BRANCH_INDIRECT: 0.000694
BRANCH_CONDITIONAL: 4.119
BRANCH_DIRECT_CALL: 1e-06
BRANCH_INDIRECT_CALL: 0
BRANCH_RETURN: 0.07342

cpu0->cpu0_STLB TOTAL        ACCESS:     492323 HIT:     445059 MISS:      47264 MSHR_MERGE:          0
cpu0->cpu0_STLB LOAD         ACCESS:     492323 HIT:     445059 MISS:      47264 MSHR_MERGE:          0
cpu0->cpu0_STLB RFO          ACCESS:          0 HIT:          0 MISS:          0 MSHR_MERGE:          0
cpu0->cpu0_STLB PREFETCH     ACCESS:          0 HIT:          0 MISS:          0 MSHR_MERGE:          0
cpu0->cpu0_STLB WRITE        ACCESS:          0 HIT:          0 MISS:          0 MSHR_MERGE:          0
cpu0->cpu0_STLB TRANSLATION  ACCESS:          0 HIT:          0 MISS:          0 MSHR_MERGE:          0
cpu0->cpu0_STLB PREFETCH REQUESTED:          0 ISSUED:          0 USEFUL:          0 USELESS:          0
cpu0->cpu0_STLB AVERAGE MISS LATENCY: 274.4 cycles
cpu0->cpu0_L2C TOTAL        ACCESS:   88909677 HIT:   49836616 MISS:   39073061 MSHR_MERGE:    1001366
cpu0->cpu0_L2C LOAD         ACCESS:   10400314 HIT:    7505807 MISS:    2894507 MSHR_MERGE:     415913
cpu0->cpu0_L2C RFO          ACCESS:    4999758 HIT:    2933908 MISS:    2065850 MSHR_MERGE:          0
cpu0->cpu0_L2C PREFETCH     ACCESS:   66729600 HIT:   32650098 MISS:   34079502 MSHR_MERGE:     585453
cpu0->cpu0_L2C WRITE        ACCESS:    6737074 HIT:    6733733 MISS:       3341 MSHR_MERGE:          0
cpu0->cpu0_L2C TRANSLATION  ACCESS:      42931 HIT:      13070 MISS:      29861 MSHR_MERGE:          0
cpu0->cpu0_L2C PREFETCH REQUESTED:   92887339 ISSUED:   66729585 USEFUL:    1967172 USELESS:      47318
cpu0->cpu0_L2C AVERAGE MISS LATENCY: 118.2 cycles
cpu0->cpu0_L1I TOTAL        ACCESS:   50251029 HIT:   49295811 MISS:     955218 MSHR_MERGE:     443490
cpu0->cpu0_L1I LOAD         ACCESS:   50251029 HIT:   49295811 MISS:     955218 MSHR_MERGE:     443490
cpu0->cpu0_L1I RFO          ACCESS:          0 HIT:          0 MISS:          0 MSHR_MERGE:          0
cpu0->cpu0_L1I PREFETCH     ACCESS:          0 HIT:          0 MISS:          0 MSHR_MERGE:          0
cpu0->cpu0_L1I WRITE        ACCESS:          0 HIT:          0 MISS:          0 MSHR_MERGE:          0
cpu0->cpu0_L1I TRANSLATION  ACCESS:          0 HIT:          0 MISS:          0 MSHR_MERGE:          0
cpu0->cpu0_L1I PREFETCH REQUESTED:          0 ISSUED:          0 USEFUL:          0 USELESS:          0
cpu0->cpu0_L1I AVERAGE MISS LATENCY: 25.69 cycles
cpu0->cpu0_L1D TOTAL        ACCESS:  242943266 HIT:  206856331 MISS:   36086935 MSHR_MERGE:   21155498
cpu0->cpu0_L1D LOAD         ACCESS:  175314775 HIT:  156839670 MISS:   18475105 MSHR_MERGE:    8586434
cpu0->cpu0_L1D RFO          ACCESS:          0 HIT:          0 MISS:          0 MSHR_MERGE:          0
cpu0->cpu0_L1D PREFETCH     ACCESS:          0 HIT:          0 MISS:          0 MSHR_MERGE:          0
cpu0->cpu0_L1D WRITE        ACCESS:   67572185 HIT:   50003845 MISS:   17568340 MSHR_MERGE:   12568505
cpu0->cpu0_L1D TRANSLATION  ACCESS:      56306 HIT:      12816 MISS:      43490 MSHR_MERGE:        559
cpu0->cpu0_L1D PREFETCH REQUESTED:          0 ISSUED:          0 USEFUL:          0 USELESS:          0
cpu0->cpu0_L1D AVERAGE MISS LATENCY: 47.4 cycles
cpu0->cpu0_ITLB TOTAL        ACCESS:   41788457 HIT:   41734553 MISS:      53904 MSHR_MERGE:      32503
cpu0->cpu0_ITLB LOAD         ACCESS:   41788457 HIT:   41734553 MISS:      53904 MSHR_MERGE:      32503
cpu0->cpu0_ITLB RFO          ACCESS:          0 HIT:          0 MISS:          0 MSHR_MERGE:          0
cpu0->cpu0_ITLB PREFETCH     ACCESS:          0 HIT:          0 MISS:          0 MSHR_MERGE:          0
cpu0->cpu0_ITLB WRITE        ACCESS:          0 HIT:          0 MISS:          0 MSHR_MERGE:          0
cpu0->cpu0_ITLB TRANSLATION  ACCESS:          0 HIT:          0 MISS:          0 MSHR_MERGE:          0
cpu0->cpu0_ITLB PREFETCH REQUESTED:          0 ISSUED:          0 USEFUL:          0 USELESS:          0
cpu0->cpu0_ITLB AVERAGE MISS LATENCY: 12.86 cycles
cpu0->cpu0_DTLB TOTAL        ACCESS:  235240510 HIT:  234233946 MISS:    1006564 MSHR_MERGE:     535642
cpu0->cpu0_DTLB LOAD         ACCESS:  235240510 HIT:  234233946 MISS:    1006564 MSHR_MERGE:     535642
cpu0->cpu0_DTLB RFO          ACCESS:          0 HIT:          0 MISS:          0 MSHR_MERGE:          0
cpu0->cpu0_DTLB PREFETCH     ACCESS:          0 HIT:          0 MISS:          0 MSHR_MERGE:          0
cpu0->cpu0_DTLB WRITE        ACCESS:          0 HIT:          0 MISS:          0 MSHR_MERGE:          0
cpu0->cpu0_DTLB TRANSLATION  ACCESS:          0 HIT:          0 MISS:          0 MSHR_MERGE:          0
cpu0->cpu0_DTLB PREFETCH REQUESTED:          0 ISSUED:          0 USEFUL:          0 USELESS:          0
cpu0->cpu0_DTLB AVERAGE MISS LATENCY: 32.29 cycles
cpu0->LLC TOTAL        ACCESS:   40823278 HIT:   28691413 MISS:   12131865 MSHR_MERGE:    8415764
cpu0->LLC LOAD         ACCESS:    2478594 HIT:    2211612 MISS:     266982 MSHR_MERGE:     122633
cpu0->LLC RFO          ACCESS:    2065849 HIT:     786817 MISS:    1279032 MSHR_MERGE:         13
cpu0->LLC PREFETCH     ACCESS:   33268462 HIT:   22736309 MISS:   10532153 MSHR_MERGE:    8293118
cpu0->LLC WRITE        ACCESS:    2980512 HIT:    2948277 MISS:      32235 MSHR_MERGE:          0
cpu0->LLC TRANSLATION  ACCESS:      29861 HIT:       8398 MISS:      21463 MSHR_MERGE:          0
cpu0->LLC PREFETCH REQUESTED:          0 ISSUED:          0 USEFUL:          0 USELESS:          0
cpu0->LLC AVERAGE MISS LATENCY: 314.5 cycles

DRAM Statistics

Channel 0 RQ ROW_BUFFER_HIT:     246687
  ROW_BUFFER_MISS:    3436305
  AVG DBUS CONGESTED CYCLE: 6.795
Channel 0 WQ ROW_BUFFER_HIT:     261570
  ROW_BUFFER_MISS:    1523958
  FULL:          0
Channel 0 REFRESHES ISSUED:      40442
