[VMEM] WARNING: physical memory size is smaller than virtual memory size.
WARNING: option --warmup_instructions is deprecated. Use --warmup-instructions instead.
WARNING: option --simulation_instructions is deprecated. Use --simulation-instructions instead.

*** ChampSim Multicore Out-of-Order Simulator ***
Warmup Instructions: 200000000
Simulation Instructions: 1000000000
Number of CPUs: 1
Page size: 4096

Initialize SIGNATURE TABLE
ST_SET: 1
ST_WAY: 256
ST_TAG_BIT: 16

Initialize PATTERN TABLE
PT_SET: 512
PT_WAY: 4
SIG_DELTA_BIT: 7
C_SIG_BIT: 4
C_DELTA_BIT: 4

Initialize PREFETCH FILTER
FILTER_SET: 1024
Off-chip DRAM Size: 16 GiB Channels: 1 Width: 64-bit Data Rate: 3205 MT/s
Heartbeat CPU 0 instructions: 10000001 cycles: 2515239 heartbeat IPC: 3.976 cumulative IPC: 3.976 (Simulation time: 00 hr 00 min 54 sec)
Heartbeat CPU 0 instructions: 20000003 cycles: 5026952 heartbeat IPC: 3.981 cumulative IPC: 3.979 (Simulation time: 00 hr 01 min 48 sec)
Heartbeat CPU 0 instructions: 30000003 cycles: 7540682 heartbeat IPC: 3.978 cumulative IPC: 3.978 (Simulation time: 00 hr 02 min 42 sec)
Heartbeat CPU 0 instructions: 40000004 cycles: 10058639 heartbeat IPC: 3.971 cumulative IPC: 3.977 (Simulation time: 00 hr 03 min 36 sec)
Heartbeat CPU 0 instructions: 50000004 cycles: 12575439 heartbeat IPC: 3.973 cumulative IPC: 3.976 (Simulation time: 00 hr 04 min 30 sec)
Heartbeat CPU 0 instructions: 60000008 cycles: 15093993 heartbeat IPC: 3.971 cumulative IPC: 3.975 (Simulation time: 00 hr 05 min 24 sec)
Heartbeat CPU 0 instructions: 70000008 cycles: 17606004 heartbeat IPC: 3.981 cumulative IPC: 3.976 (Simulation time: 00 hr 06 min 18 sec)
Heartbeat CPU 0 instructions: 80000008 cycles: 20118651 heartbeat IPC: 3.98 cumulative IPC: 3.976 (Simulation time: 00 hr 07 min 12 sec)
Heartbeat CPU 0 instructions: 90000009 cycles: 22634871 heartbeat IPC: 3.974 cumulative IPC: 3.976 (Simulation time: 00 hr 08 min 06 sec)
Heartbeat CPU 0 instructions: 100000013 cycles: 25146827 heartbeat IPC: 3.981 cumulative IPC: 3.977 (Simulation time: 00 hr 09 min 00 sec)
Heartbeat CPU 0 instructions: 110000017 cycles: 27658939 heartbeat IPC: 3.981 cumulative IPC: 3.977 (Simulation time: 00 hr 09 min 54 sec)
Heartbeat CPU 0 instructions: 120000019 cycles: 30171968 heartbeat IPC: 3.979 cumulative IPC: 3.977 (Simulation time: 00 hr 10 min 48 sec)
Heartbeat CPU 0 instructions: 130000023 cycles: 32681383 heartbeat IPC: 3.985 cumulative IPC: 3.978 (Simulation time: 00 hr 11 min 42 sec)
Heartbeat CPU 0 instructions: 140000023 cycles: 35190593 heartbeat IPC: 3.985 cumulative IPC: 3.978 (Simulation time: 00 hr 12 min 37 sec)
Heartbeat CPU 0 instructions: 150000026 cycles: 37700561 heartbeat IPC: 3.984 cumulative IPC: 3.979 (Simulation time: 00 hr 13 min 31 sec)
Heartbeat CPU 0 instructions: 160000028 cycles: 40209646 heartbeat IPC: 3.986 cumulative IPC: 3.979 (Simulation time: 00 hr 14 min 25 sec)
Heartbeat CPU 0 instructions: 170000032 cycles: 42719467 heartbeat IPC: 3.984 cumulative IPC: 3.979 (Simulation time: 00 hr 15 min 19 sec)
Heartbeat CPU 0 instructions: 180000032 cycles: 45228733 heartbeat IPC: 3.985 cumulative IPC: 3.98 (Simulation time: 00 hr 16 min 13 sec)
Heartbeat CPU 0 instructions: 190000036 cycles: 47737381 heartbeat IPC: 3.986 cumulative IPC: 3.98 (Simulation time: 00 hr 17 min 09 sec)
Warmup finished CPU 0 instructions: 200000004 cycles: 50246286 cumulative IPC: 3.98 (Simulation time: 00 hr 18 min 04 sec)
Warmup complete CPU 0 instructions: 200000004 cycles: 50246286 cumulative IPC: 3.98 (Simulation time: 00 hr 18 min 04 sec)
Heartbeat CPU 0 instructions: 200000039 cycles: 50246293 heartbeat IPC: 3.986 cumulative IPC: 5 (Simulation time: 00 hr 18 min 04 sec)
Heartbeat CPU 0 instructions: 210000041 cycles: 57043242 heartbeat IPC: 1.471 cumulative IPC: 1.471 (Simulation time: 00 hr 19 min 21 sec)
Heartbeat CPU 0 instructions: 220000041 cycles: 63936853 heartbeat IPC: 1.451 cumulative IPC: 1.461 (Simulation time: 00 hr 20 min 38 sec)
Heartbeat CPU 0 instructions: 230000045 cycles: 70818220 heartbeat IPC: 1.453 cumulative IPC: 1.458 (Simulation time: 00 hr 21 min 56 sec)
Heartbeat CPU 0 instructions: 240000045 cycles: 77710364 heartbeat IPC: 1.451 cumulative IPC: 1.456 (Simulation time: 00 hr 23 min 13 sec)
Heartbeat CPU 0 instructions: 250000048 cycles: 84632527 heartbeat IPC: 1.445 cumulative IPC: 1.454 (Simulation time: 00 hr 24 min 30 sec)
Heartbeat CPU 0 instructions: 260000048 cycles: 91539511 heartbeat IPC: 1.448 cumulative IPC: 1.453 (Simulation time: 00 hr 25 min 47 sec)
Heartbeat CPU 0 instructions: 270000048 cycles: 98425313 heartbeat IPC: 1.452 cumulative IPC: 1.453 (Simulation time: 00 hr 27 min 04 sec)
Heartbeat CPU 0 instructions: 280000048 cycles: 105303173 heartbeat IPC: 1.454 cumulative IPC: 1.453 (Simulation time: 00 hr 28 min 20 sec)
Heartbeat CPU 0 instructions: 290000050 cycles: 112174035 heartbeat IPC: 1.455 cumulative IPC: 1.453 (Simulation time: 00 hr 29 min 36 sec)
Heartbeat CPU 0 instructions: 300000053 cycles: 119043436 heartbeat IPC: 1.456 cumulative IPC: 1.454 (Simulation time: 00 hr 30 min 52 sec)
Heartbeat CPU 0 instructions: 310000053 cycles: 125917203 heartbeat IPC: 1.455 cumulative IPC: 1.454 (Simulation time: 00 hr 32 min 09 sec)
Heartbeat CPU 0 instructions: 320000055 cycles: 132799044 heartbeat IPC: 1.453 cumulative IPC: 1.454 (Simulation time: 00 hr 33 min 25 sec)
Heartbeat CPU 0 instructions: 330000055 cycles: 139740043 heartbeat IPC: 1.441 cumulative IPC: 1.453 (Simulation time: 00 hr 34 min 41 sec)
Heartbeat CPU 0 instructions: 340000057 cycles: 146650454 heartbeat IPC: 1.447 cumulative IPC: 1.452 (Simulation time: 00 hr 35 min 58 sec)
Heartbeat CPU 0 instructions: 350000058 cycles: 153551262 heartbeat IPC: 1.449 cumulative IPC: 1.452 (Simulation time: 00 hr 37 min 15 sec)
Heartbeat CPU 0 instructions: 360000059 cycles: 160440029 heartbeat IPC: 1.452 cumulative IPC: 1.452 (Simulation time: 00 hr 38 min 32 sec)
Heartbeat CPU 0 instructions: 370000059 cycles: 167331549 heartbeat IPC: 1.451 cumulative IPC: 1.452 (Simulation time: 00 hr 39 min 49 sec)
Heartbeat CPU 0 instructions: 380000062 cycles: 174232209 heartbeat IPC: 1.449 cumulative IPC: 1.452 (Simulation time: 00 hr 41 min 06 sec)
Heartbeat CPU 0 instructions: 390000063 cycles: 181122959 heartbeat IPC: 1.451 cumulative IPC: 1.452 (Simulation time: 00 hr 42 min 22 sec)
Heartbeat CPU 0 instructions: 400000064 cycles: 188009547 heartbeat IPC: 1.452 cumulative IPC: 1.452 (Simulation time: 00 hr 43 min 39 sec)
Heartbeat CPU 0 instructions: 410000067 cycles: 194891907 heartbeat IPC: 1.453 cumulative IPC: 1.452 (Simulation time: 00 hr 44 min 56 sec)
Heartbeat CPU 0 instructions: 420000068 cycles: 201776248 heartbeat IPC: 1.453 cumulative IPC: 1.452 (Simulation time: 00 hr 46 min 12 sec)
Heartbeat CPU 0 instructions: 430000068 cycles: 208665155 heartbeat IPC: 1.452 cumulative IPC: 1.452 (Simulation time: 00 hr 47 min 29 sec)
Heartbeat CPU 0 instructions: 440000069 cycles: 215562823 heartbeat IPC: 1.45 cumulative IPC: 1.452 (Simulation time: 00 hr 48 min 46 sec)
Heartbeat CPU 0 instructions: 450000073 cycles: 222464301 heartbeat IPC: 1.449 cumulative IPC: 1.452 (Simulation time: 00 hr 50 min 04 sec)
Heartbeat CPU 0 instructions: 460000077 cycles: 229372470 heartbeat IPC: 1.448 cumulative IPC: 1.451 (Simulation time: 00 hr 51 min 21 sec)
Heartbeat CPU 0 instructions: 470000077 cycles: 236292100 heartbeat IPC: 1.445 cumulative IPC: 1.451 (Simulation time: 00 hr 52 min 38 sec)
Heartbeat CPU 0 instructions: 480000080 cycles: 243204563 heartbeat IPC: 1.447 cumulative IPC: 1.451 (Simulation time: 00 hr 53 min 55 sec)
Heartbeat CPU 0 instructions: 490000083 cycles: 250117311 heartbeat IPC: 1.447 cumulative IPC: 1.451 (Simulation time: 00 hr 55 min 12 sec)
Heartbeat CPU 0 instructions: 500000083 cycles: 257047190 heartbeat IPC: 1.443 cumulative IPC: 1.451 (Simulation time: 00 hr 56 min 29 sec)
Heartbeat CPU 0 instructions: 510000084 cycles: 263995396 heartbeat IPC: 1.439 cumulative IPC: 1.45 (Simulation time: 00 hr 57 min 47 sec)
Heartbeat CPU 0 instructions: 520000084 cycles: 270945847 heartbeat IPC: 1.439 cumulative IPC: 1.45 (Simulation time: 00 hr 59 min 04 sec)
Heartbeat CPU 0 instructions: 530000084 cycles: 277895716 heartbeat IPC: 1.439 cumulative IPC: 1.45 (Simulation time: 01 hr 00 min 21 sec)
Heartbeat CPU 0 instructions: 540000088 cycles: 284806596 heartbeat IPC: 1.447 cumulative IPC: 1.45 (Simulation time: 01 hr 01 min 38 sec)
Heartbeat CPU 0 instructions: 550000089 cycles: 291739253 heartbeat IPC: 1.442 cumulative IPC: 1.449 (Simulation time: 01 hr 02 min 55 sec)
Heartbeat CPU 0 instructions: 560000092 cycles: 298648636 heartbeat IPC: 1.447 cumulative IPC: 1.449 (Simulation time: 01 hr 04 min 10 sec)
Heartbeat CPU 0 instructions: 570000096 cycles: 305554826 heartbeat IPC: 1.448 cumulative IPC: 1.449 (Simulation time: 01 hr 05 min 21 sec)
Heartbeat CPU 0 instructions: 580000100 cycles: 312461621 heartbeat IPC: 1.448 cumulative IPC: 1.449 (Simulation time: 01 hr 06 min 29 sec)
Heartbeat CPU 0 instructions: 590000103 cycles: 319375678 heartbeat IPC: 1.446 cumulative IPC: 1.449 (Simulation time: 01 hr 07 min 40 sec)
Heartbeat CPU 0 instructions: 600000104 cycles: 326288860 heartbeat IPC: 1.447 cumulative IPC: 1.449 (Simulation time: 01 hr 08 min 49 sec)
Heartbeat CPU 0 instructions: 610000104 cycles: 333203466 heartbeat IPC: 1.446 cumulative IPC: 1.449 (Simulation time: 01 hr 09 min 58 sec)
Heartbeat CPU 0 instructions: 620000104 cycles: 340121973 heartbeat IPC: 1.445 cumulative IPC: 1.449 (Simulation time: 01 hr 11 min 07 sec)
Heartbeat CPU 0 instructions: 630000106 cycles: 347046595 heartbeat IPC: 1.444 cumulative IPC: 1.449 (Simulation time: 01 hr 12 min 16 sec)
Heartbeat CPU 0 instructions: 640000108 cycles: 353950711 heartbeat IPC: 1.448 cumulative IPC: 1.449 (Simulation time: 01 hr 13 min 24 sec)
Heartbeat CPU 0 instructions: 650000111 cycles: 360870106 heartbeat IPC: 1.445 cumulative IPC: 1.449 (Simulation time: 01 hr 14 min 33 sec)
Heartbeat CPU 0 instructions: 660000114 cycles: 367803178 heartbeat IPC: 1.442 cumulative IPC: 1.449 (Simulation time: 01 hr 15 min 41 sec)
Heartbeat CPU 0 instructions: 670000115 cycles: 374780777 heartbeat IPC: 1.433 cumulative IPC: 1.448 (Simulation time: 01 hr 16 min 51 sec)
Heartbeat CPU 0 instructions: 680000115 cycles: 381726855 heartbeat IPC: 1.44 cumulative IPC: 1.448 (Simulation time: 01 hr 17 min 59 sec)
Heartbeat CPU 0 instructions: 690000116 cycles: 388651313 heartbeat IPC: 1.444 cumulative IPC: 1.448 (Simulation time: 01 hr 19 min 09 sec)
Heartbeat CPU 0 instructions: 700000119 cycles: 395570215 heartbeat IPC: 1.445 cumulative IPC: 1.448 (Simulation time: 01 hr 20 min 18 sec)
Heartbeat CPU 0 instructions: 710000120 cycles: 402524173 heartbeat IPC: 1.438 cumulative IPC: 1.448 (Simulation time: 01 hr 21 min 30 sec)
Heartbeat CPU 0 instructions: 720000122 cycles: 409487917 heartbeat IPC: 1.436 cumulative IPC: 1.447 (Simulation time: 01 hr 22 min 46 sec)
Heartbeat CPU 0 instructions: 730000123 cycles: 416423927 heartbeat IPC: 1.442 cumulative IPC: 1.447 (Simulation time: 01 hr 24 min 03 sec)
Heartbeat CPU 0 instructions: 740000127 cycles: 423338868 heartbeat IPC: 1.446 cumulative IPC: 1.447 (Simulation time: 01 hr 25 min 11 sec)
Heartbeat CPU 0 instructions: 750000129 cycles: 430254860 heartbeat IPC: 1.446 cumulative IPC: 1.447 (Simulation time: 01 hr 26 min 20 sec)
Heartbeat CPU 0 instructions: 760000132 cycles: 437157442 heartbeat IPC: 1.449 cumulative IPC: 1.447 (Simulation time: 01 hr 27 min 29 sec)
Heartbeat CPU 0 instructions: 770000133 cycles: 444056721 heartbeat IPC: 1.449 cumulative IPC: 1.447 (Simulation time: 01 hr 28 min 37 sec)
Heartbeat CPU 0 instructions: 780000136 cycles: 450956643 heartbeat IPC: 1.449 cumulative IPC: 1.447 (Simulation time: 01 hr 29 min 46 sec)
Heartbeat CPU 0 instructions: 790000136 cycles: 457844422 heartbeat IPC: 1.452 cumulative IPC: 1.448 (Simulation time: 01 hr 30 min 54 sec)
Heartbeat CPU 0 instructions: 800000137 cycles: 464753272 heartbeat IPC: 1.447 cumulative IPC: 1.448 (Simulation time: 01 hr 32 min 03 sec)
Heartbeat CPU 0 instructions: 810000137 cycles: 471656314 heartbeat IPC: 1.449 cumulative IPC: 1.448 (Simulation time: 01 hr 33 min 12 sec)
Heartbeat CPU 0 instructions: 820000137 cycles: 478547150 heartbeat IPC: 1.451 cumulative IPC: 1.448 (Simulation time: 01 hr 34 min 21 sec)
Heartbeat CPU 0 instructions: 830000140 cycles: 485439540 heartbeat IPC: 1.451 cumulative IPC: 1.448 (Simulation time: 01 hr 35 min 30 sec)
Heartbeat CPU 0 instructions: 840000144 cycles: 492329490 heartbeat IPC: 1.451 cumulative IPC: 1.448 (Simulation time: 01 hr 36 min 39 sec)
Heartbeat CPU 0 instructions: 850000146 cycles: 499225680 heartbeat IPC: 1.45 cumulative IPC: 1.448 (Simulation time: 01 hr 37 min 48 sec)
Heartbeat CPU 0 instructions: 860000149 cycles: 506131370 heartbeat IPC: 1.448 cumulative IPC: 1.448 (Simulation time: 01 hr 38 min 57 sec)
Heartbeat CPU 0 instructions: 870000150 cycles: 513020077 heartbeat IPC: 1.452 cumulative IPC: 1.448 (Simulation time: 01 hr 40 min 06 sec)
Heartbeat CPU 0 instructions: 880000154 cycles: 519913684 heartbeat IPC: 1.451 cumulative IPC: 1.448 (Simulation time: 01 hr 41 min 15 sec)
Heartbeat CPU 0 instructions: 890000157 cycles: 526798293 heartbeat IPC: 1.453 cumulative IPC: 1.448 (Simulation time: 01 hr 42 min 23 sec)
Heartbeat CPU 0 instructions: 900000157 cycles: 533675947 heartbeat IPC: 1.454 cumulative IPC: 1.448 (Simulation time: 01 hr 43 min 32 sec)
Heartbeat CPU 0 instructions: 910000157 cycles: 540552121 heartbeat IPC: 1.454 cumulative IPC: 1.448 (Simulation time: 01 hr 44 min 40 sec)
Heartbeat CPU 0 instructions: 920000158 cycles: 547468722 heartbeat IPC: 1.446 cumulative IPC: 1.448 (Simulation time: 01 hr 45 min 48 sec)
Heartbeat CPU 0 instructions: 930000159 cycles: 554422395 heartbeat IPC: 1.438 cumulative IPC: 1.448 (Simulation time: 01 hr 46 min 57 sec)
Heartbeat CPU 0 instructions: 940000159 cycles: 561396709 heartbeat IPC: 1.434 cumulative IPC: 1.448 (Simulation time: 01 hr 48 min 06 sec)
Heartbeat CPU 0 instructions: 950000159 cycles: 568370007 heartbeat IPC: 1.434 cumulative IPC: 1.448 (Simulation time: 01 hr 49 min 16 sec)
Heartbeat CPU 0 instructions: 960000161 cycles: 575407086 heartbeat IPC: 1.421 cumulative IPC: 1.447 (Simulation time: 01 hr 50 min 25 sec)
Heartbeat CPU 0 instructions: 970000161 cycles: 582431111 heartbeat IPC: 1.424 cumulative IPC: 1.447 (Simulation time: 01 hr 51 min 35 sec)
Heartbeat CPU 0 instructions: 980000162 cycles: 589454624 heartbeat IPC: 1.424 cumulative IPC: 1.447 (Simulation time: 01 hr 52 min 45 sec)
Heartbeat CPU 0 instructions: 990000163 cycles: 596454846 heartbeat IPC: 1.429 cumulative IPC: 1.446 (Simulation time: 01 hr 53 min 58 sec)
Heartbeat CPU 0 instructions: 1000000164 cycles: 603441035 heartbeat IPC: 1.431 cumulative IPC: 1.446 (Simulation time: 01 hr 55 min 14 sec)
Heartbeat CPU 0 instructions: 1010000165 cycles: 610485943 heartbeat IPC: 1.419 cumulative IPC: 1.446 (Simulation time: 01 hr 56 min 31 sec)
Heartbeat CPU 0 instructions: 1020000166 cycles: 617556708 heartbeat IPC: 1.414 cumulative IPC: 1.445 (Simulation time: 01 hr 57 min 44 sec)
Heartbeat CPU 0 instructions: 1030000170 cycles: 624640644 heartbeat IPC: 1.412 cumulative IPC: 1.445 (Simulation time: 01 hr 58 min 54 sec)
Heartbeat CPU 0 instructions: 1040000170 cycles: 631744345 heartbeat IPC: 1.408 cumulative IPC: 1.445 (Simulation time: 02 hr 00 min 05 sec)
Heartbeat CPU 0 instructions: 1050000172 cycles: 638872552 heartbeat IPC: 1.403 cumulative IPC: 1.444 (Simulation time: 02 hr 01 min 16 sec)
Heartbeat CPU 0 instructions: 1060000172 cycles: 645992779 heartbeat IPC: 1.404 cumulative IPC: 1.444 (Simulation time: 02 hr 02 min 26 sec)
Heartbeat CPU 0 instructions: 1070000173 cycles: 653127162 heartbeat IPC: 1.402 cumulative IPC: 1.443 (Simulation time: 02 hr 03 min 37 sec)
Heartbeat CPU 0 instructions: 1080000177 cycles: 660261607 heartbeat IPC: 1.402 cumulative IPC: 1.443 (Simulation time: 02 hr 04 min 48 sec)
Heartbeat CPU 0 instructions: 1090000177 cycles: 667426250 heartbeat IPC: 1.396 cumulative IPC: 1.442 (Simulation time: 02 hr 05 min 59 sec)
Heartbeat CPU 0 instructions: 1100000177 cycles: 674583057 heartbeat IPC: 1.397 cumulative IPC: 1.442 (Simulation time: 02 hr 07 min 09 sec)
Heartbeat CPU 0 instructions: 1110000177 cycles: 681719774 heartbeat IPC: 1.401 cumulative IPC: 1.441 (Simulation time: 02 hr 08 min 21 sec)
Heartbeat CPU 0 instructions: 1120000178 cycles: 688823734 heartbeat IPC: 1.408 cumulative IPC: 1.441 (Simulation time: 02 hr 09 min 32 sec)
Heartbeat CPU 0 instructions: 1130000181 cycles: 695798290 heartbeat IPC: 1.434 cumulative IPC: 1.441 (Simulation time: 02 hr 10 min 41 sec)
Heartbeat CPU 0 instructions: 1140000184 cycles: 702775672 heartbeat IPC: 1.433 cumulative IPC: 1.441 (Simulation time: 02 hr 11 min 50 sec)
Heartbeat CPU 0 instructions: 1150000188 cycles: 709751335 heartbeat IPC: 1.434 cumulative IPC: 1.44 (Simulation time: 02 hr 12 min 59 sec)
Heartbeat CPU 0 instructions: 1160000189 cycles: 716687195 heartbeat IPC: 1.442 cumulative IPC: 1.44 (Simulation time: 02 hr 14 min 08 sec)
Heartbeat CPU 0 instructions: 1170000189 cycles: 723788048 heartbeat IPC: 1.408 cumulative IPC: 1.44 (Simulation time: 02 hr 15 min 18 sec)
Heartbeat CPU 0 instructions: 1180000189 cycles: 730939963 heartbeat IPC: 1.398 cumulative IPC: 1.44 (Simulation time: 02 hr 16 min 28 sec)
Heartbeat CPU 0 instructions: 1190000192 cycles: 737953402 heartbeat IPC: 1.426 cumulative IPC: 1.44 (Simulation time: 02 hr 17 min 38 sec)
Simulation finished CPU 0 instructions: 1000000003 cycles: 694707910 cumulative IPC: 1.439 (Simulation time: 02 hr 18 min 48 sec)
Simulation complete CPU 0 instructions: 1000000003 cycles: 694707910 cumulative IPC: 1.439 (Simulation time: 02 hr 18 min 48 sec)

ChampSim completed all CPUs

=== Simulation ===
CPU 0 runs /home/grads/r/raveena_manasi/ECEN_676/ChampSim/dpc3_traces/644.nab_s-5853B.champsimtrace.xz

Region of Interest Statistics

CPU 0 cumulative IPC: 1.439 instructions: 1000000003 cycles: 694707910
CPU 0 Branch Prediction Accuracy: 88.54% MPKI: 11.09 Average ROB Occupancy at Mispredict: 60.85
Branch type MPKI
BRANCH_DIRECT_JUMP: 0.000119
BRANCH_INDIRECT: 0
BRANCH_CONDITIONAL: 5.563
BRANCH_DIRECT_CALL: 1e-06
BRANCH_INDIRECT_CALL: 0
BRANCH_RETURN: 5.528

cpu0->cpu0_STLB TOTAL        ACCESS:    2230275 HIT:    2222486 MISS:       7789 MSHR_MERGE:          0
cpu0->cpu0_STLB LOAD         ACCESS:    2230275 HIT:    2222486 MISS:       7789 MSHR_MERGE:          0
cpu0->cpu0_STLB RFO          ACCESS:          0 HIT:          0 MISS:          0 MSHR_MERGE:          0
cpu0->cpu0_STLB PREFETCH     ACCESS:          0 HIT:          0 MISS:          0 MSHR_MERGE:          0
cpu0->cpu0_STLB WRITE        ACCESS:          0 HIT:          0 MISS:          0 MSHR_MERGE:          0
cpu0->cpu0_STLB TRANSLATION  ACCESS:          0 HIT:          0 MISS:          0 MSHR_MERGE:          0
cpu0->cpu0_STLB PREFETCH REQUESTED:          0 ISSUED:          0 USEFUL:          0 USELESS:          0
cpu0->cpu0_STLB AVERAGE MISS LATENCY: 275.8 cycles
cpu0->cpu0_L2C TOTAL        ACCESS:   22277716 HIT:   20154974 MISS:    2122742 MSHR_MERGE:       3346
cpu0->cpu0_L2C LOAD         ACCESS:    3908762 HIT:    3789616 MISS:     119146 MSHR_MERGE:         15
cpu0->cpu0_L2C RFO          ACCESS:      15043 HIT:      14534 MISS:        509 MSHR_MERGE:          0
cpu0->cpu0_L2C PREFETCH     ACCESS:   16997067 HIT:   14997206 MISS:    1999861 MSHR_MERGE:       3331
cpu0->cpu0_L2C WRITE        ACCESS:    1349097 HIT:    1349089 MISS:          8 MSHR_MERGE:          0
cpu0->cpu0_L2C TRANSLATION  ACCESS:       7747 HIT:       4529 MISS:       3218 MSHR_MERGE:          0
cpu0->cpu0_L2C PREFETCH REQUESTED:   17012192 ISSUED:   16997067 USEFUL:      79867 USELESS:       2047
cpu0->cpu0_L2C AVERAGE MISS LATENCY: 35.88 cycles
cpu0->cpu0_L1I TOTAL        ACCESS:      22243 HIT:      22241 MISS:          2 MSHR_MERGE:          0
cpu0->cpu0_L1I LOAD         ACCESS:      22243 HIT:      22241 MISS:          2 MSHR_MERGE:          0
cpu0->cpu0_L1I RFO          ACCESS:          0 HIT:          0 MISS:          0 MSHR_MERGE:          0
cpu0->cpu0_L1I PREFETCH     ACCESS:          0 HIT:          0 MISS:          0 MSHR_MERGE:          0
cpu0->cpu0_L1I WRITE        ACCESS:          0 HIT:          0 MISS:          0 MSHR_MERGE:          0
cpu0->cpu0_L1I TRANSLATION  ACCESS:          0 HIT:          0 MISS:          0 MSHR_MERGE:          0
cpu0->cpu0_L1I PREFETCH REQUESTED:          0 ISSUED:          0 USEFUL:          0 USELESS:          0
cpu0->cpu0_L1I AVERAGE MISS LATENCY: 165.5 cycles
cpu0->cpu0_L1D TOTAL        ACCESS:  328972942 HIT:  323509557 MISS:    5463385 MSHR_MERGE:    1531788
cpu0->cpu0_L1D LOAD         ACCESS:  218332146 HIT:  212929779 MISS:    5402367 MSHR_MERGE:    1493607
cpu0->cpu0_L1D RFO          ACCESS:          0 HIT:          0 MISS:          0 MSHR_MERGE:          0
cpu0->cpu0_L1D PREFETCH     ACCESS:          0 HIT:          0 MISS:          0 MSHR_MERGE:          0
cpu0->cpu0_L1D WRITE        ACCESS:  110632789 HIT:  110579518 MISS:      53271 MSHR_MERGE:      38181
cpu0->cpu0_L1D TRANSLATION  ACCESS:       8007 HIT:        260 MISS:       7747 MSHR_MERGE:          0
cpu0->cpu0_L1D PREFETCH REQUESTED:          0 ISSUED:          0 USEFUL:          0 USELESS:          0
cpu0->cpu0_L1D AVERAGE MISS LATENCY: 9.161 cycles
cpu0->cpu0_ITLB TOTAL        ACCESS:      18942 HIT:      18942 MISS:          0 MSHR_MERGE:          0
cpu0->cpu0_ITLB LOAD         ACCESS:      18942 HIT:      18942 MISS:          0 MSHR_MERGE:          0
cpu0->cpu0_ITLB RFO          ACCESS:          0 HIT:          0 MISS:          0 MSHR_MERGE:          0
cpu0->cpu0_ITLB PREFETCH     ACCESS:          0 HIT:          0 MISS:          0 MSHR_MERGE:          0
cpu0->cpu0_ITLB WRITE        ACCESS:          0 HIT:          0 MISS:          0 MSHR_MERGE:          0
cpu0->cpu0_ITLB TRANSLATION  ACCESS:          0 HIT:          0 MISS:          0 MSHR_MERGE:          0
cpu0->cpu0_ITLB PREFETCH REQUESTED:          0 ISSUED:          0 USEFUL:          0 USELESS:          0
cpu0->cpu0_ITLB AVERAGE MISS LATENCY: - cycles
cpu0->cpu0_DTLB TOTAL        ACCESS:  309329764 HIT:  306304120 MISS:    3025644 MSHR_MERGE:     795369
cpu0->cpu0_DTLB LOAD         ACCESS:  309329764 HIT:  306304120 MISS:    3025644 MSHR_MERGE:     795369
cpu0->cpu0_DTLB RFO          ACCESS:          0 HIT:          0 MISS:          0 MSHR_MERGE:          0
cpu0->cpu0_DTLB PREFETCH     ACCESS:          0 HIT:          0 MISS:          0 MSHR_MERGE:          0
cpu0->cpu0_DTLB WRITE        ACCESS:          0 HIT:          0 MISS:          0 MSHR_MERGE:          0
cpu0->cpu0_DTLB TRANSLATION  ACCESS:          0 HIT:          0 MISS:          0 MSHR_MERGE:          0
cpu0->cpu0_DTLB PREFETCH REQUESTED:          0 ISSUED:          0 USEFUL:          0 USELESS:          0
cpu0->cpu0_DTLB AVERAGE MISS LATENCY: 5.967 cycles
cpu0->LLC TOTAL        ACCESS:    2126358 HIT:    1828544 MISS:     297814 MSHR_MERGE:      74064
cpu0->LLC LOAD         ACCESS:     119131 HIT:     105627 MISS:      13504 MSHR_MERGE:         21
cpu0->LLC RFO          ACCESS:        509 HIT:        487 MISS:         22 MSHR_MERGE:          0
cpu0->LLC PREFETCH     ACCESS:    1996523 HIT:    1717035 MISS:     279488 MSHR_MERGE:      74043
cpu0->LLC WRITE        ACCESS:       6977 HIT:       4639 MISS:       2338 MSHR_MERGE:          0
cpu0->LLC TRANSLATION  ACCESS:       3218 HIT:        756 MISS:       2462 MSHR_MERGE:          0
cpu0->LLC PREFETCH REQUESTED:          0 ISSUED:          0 USEFUL:          0 USELESS:          0
cpu0->LLC AVERAGE MISS LATENCY: 140.3 cycles

DRAM Statistics

Channel 0 RQ ROW_BUFFER_HIT:         20
  ROW_BUFFER_MISS:     221392
  AVG DBUS CONGESTED CYCLE: 3.144
Channel 0 WQ ROW_BUFFER_HIT:         55
  ROW_BUFFER_MISS:       4708
  FULL:          0
Channel 0 REFRESHES ISSUED:      57892
