[VMEM] WARNING: physical memory size is smaller than virtual memory size.

*** ChampSim Multicore Out-of-Order Simulator ***
Warmup Instructions: 200000000
Simulation Instructions: 1000000000
Number of CPUs: 1
Page size: 4096

Initialize SIGNATURE TABLE
ST_SET: 1
ST_WAY: 256
ST_TAG_BIT: 16

Initialize PATTERN TABLE
PT_SET: 512
PT_WAY: 4
SIG_DELTA_BIT: 7
C_SIG_BIT: 4
C_DELTA_BIT: 4

Initialize PREFETCH FILTER
FILTER_SET: 1024
Off-chip DRAM Size: 16 GiB Channels: 1 Width: 64-bit Data Rate: 3205 MT/s
Heartbeat CPU 0 instructions: 10000000 cycles: 2685861 heartbeat IPC: 3.723 cumulative IPC: 3.723 (Simulation time: 00 hr 00 min 55 sec)
Heartbeat CPU 0 instructions: 20000000 cycles: 5364899 heartbeat IPC: 3.733 cumulative IPC: 3.728 (Simulation time: 00 hr 01 min 50 sec)
Heartbeat CPU 0 instructions: 30000000 cycles: 8043983 heartbeat IPC: 3.733 cumulative IPC: 3.729 (Simulation time: 00 hr 02 min 45 sec)
Heartbeat CPU 0 instructions: 40000001 cycles: 10722452 heartbeat IPC: 3.733 cumulative IPC: 3.73 (Simulation time: 00 hr 03 min 41 sec)
Heartbeat CPU 0 instructions: 50000004 cycles: 13401787 heartbeat IPC: 3.732 cumulative IPC: 3.731 (Simulation time: 00 hr 04 min 36 sec)
Heartbeat CPU 0 instructions: 60000007 cycles: 16080534 heartbeat IPC: 3.733 cumulative IPC: 3.731 (Simulation time: 00 hr 05 min 32 sec)
Heartbeat CPU 0 instructions: 70000011 cycles: 18759378 heartbeat IPC: 3.733 cumulative IPC: 3.731 (Simulation time: 00 hr 06 min 27 sec)
Heartbeat CPU 0 instructions: 80000011 cycles: 21438860 heartbeat IPC: 3.732 cumulative IPC: 3.732 (Simulation time: 00 hr 07 min 22 sec)
Heartbeat CPU 0 instructions: 90000012 cycles: 24117522 heartbeat IPC: 3.733 cumulative IPC: 3.732 (Simulation time: 00 hr 08 min 17 sec)
Heartbeat CPU 0 instructions: 100000015 cycles: 26796267 heartbeat IPC: 3.733 cumulative IPC: 3.732 (Simulation time: 00 hr 09 min 12 sec)
Heartbeat CPU 0 instructions: 110000019 cycles: 29475208 heartbeat IPC: 3.733 cumulative IPC: 3.732 (Simulation time: 00 hr 10 min 08 sec)
Heartbeat CPU 0 instructions: 120000022 cycles: 32154154 heartbeat IPC: 3.733 cumulative IPC: 3.732 (Simulation time: 00 hr 11 min 03 sec)
Heartbeat CPU 0 instructions: 130000023 cycles: 34832620 heartbeat IPC: 3.733 cumulative IPC: 3.732 (Simulation time: 00 hr 11 min 58 sec)
Heartbeat CPU 0 instructions: 140000023 cycles: 37512473 heartbeat IPC: 3.732 cumulative IPC: 3.732 (Simulation time: 00 hr 12 min 54 sec)
Heartbeat CPU 0 instructions: 150000024 cycles: 40190963 heartbeat IPC: 3.733 cumulative IPC: 3.732 (Simulation time: 00 hr 13 min 49 sec)
Heartbeat CPU 0 instructions: 160000026 cycles: 42869882 heartbeat IPC: 3.733 cumulative IPC: 3.732 (Simulation time: 00 hr 14 min 44 sec)
Heartbeat CPU 0 instructions: 170000030 cycles: 45548947 heartbeat IPC: 3.733 cumulative IPC: 3.732 (Simulation time: 00 hr 15 min 40 sec)
Heartbeat CPU 0 instructions: 180000032 cycles: 48227470 heartbeat IPC: 3.733 cumulative IPC: 3.732 (Simulation time: 00 hr 16 min 35 sec)
Heartbeat CPU 0 instructions: 190000035 cycles: 50906418 heartbeat IPC: 3.733 cumulative IPC: 3.732 (Simulation time: 00 hr 17 min 30 sec)
Warmup finished CPU 0 instructions: 200000003 cycles: 53585349 cumulative IPC: 3.732 (Simulation time: 00 hr 18 min 27 sec)
Warmup complete CPU 0 instructions: 200000003 cycles: 53585349 cumulative IPC: 3.732 (Simulation time: 00 hr 18 min 27 sec)
Heartbeat CPU 0 instructions: 200000038 cycles: 53585358 heartbeat IPC: 3.733 cumulative IPC: 3.889 (Simulation time: 00 hr 18 min 27 sec)
Heartbeat CPU 0 instructions: 210000041 cycles: 58925788 heartbeat IPC: 1.873 cumulative IPC: 1.873 (Simulation time: 00 hr 20 min 14 sec)
Heartbeat CPU 0 instructions: 220000043 cycles: 64280839 heartbeat IPC: 1.867 cumulative IPC: 1.87 (Simulation time: 00 hr 22 min 01 sec)
Heartbeat CPU 0 instructions: 230000043 cycles: 69646253 heartbeat IPC: 1.864 cumulative IPC: 1.868 (Simulation time: 00 hr 23 min 49 sec)
Heartbeat CPU 0 instructions: 240000043 cycles: 75010824 heartbeat IPC: 1.864 cumulative IPC: 1.867 (Simulation time: 00 hr 25 min 37 sec)
Heartbeat CPU 0 instructions: 250000047 cycles: 80379493 heartbeat IPC: 1.863 cumulative IPC: 1.866 (Simulation time: 00 hr 27 min 25 sec)
Heartbeat CPU 0 instructions: 260000051 cycles: 85721171 heartbeat IPC: 1.872 cumulative IPC: 1.867 (Simulation time: 00 hr 29 min 12 sec)
Heartbeat CPU 0 instructions: 270000051 cycles: 91172217 heartbeat IPC: 1.835 cumulative IPC: 1.862 (Simulation time: 00 hr 30 min 54 sec)
Heartbeat CPU 0 instructions: 280000054 cycles: 96695154 heartbeat IPC: 1.811 cumulative IPC: 1.856 (Simulation time: 00 hr 32 min 34 sec)
Heartbeat CPU 0 instructions: 290000058 cycles: 102217311 heartbeat IPC: 1.811 cumulative IPC: 1.851 (Simulation time: 00 hr 34 min 23 sec)
Heartbeat CPU 0 instructions: 300000062 cycles: 107747229 heartbeat IPC: 1.808 cumulative IPC: 1.846 (Simulation time: 00 hr 36 min 13 sec)
Heartbeat CPU 0 instructions: 310000062 cycles: 113260984 heartbeat IPC: 1.814 cumulative IPC: 1.843 (Simulation time: 00 hr 38 min 02 sec)
Heartbeat CPU 0 instructions: 320000066 cycles: 118777933 heartbeat IPC: 1.813 cumulative IPC: 1.841 (Simulation time: 00 hr 39 min 51 sec)
Heartbeat CPU 0 instructions: 330000066 cycles: 124308972 heartbeat IPC: 1.808 cumulative IPC: 1.838 (Simulation time: 00 hr 41 min 41 sec)
Heartbeat CPU 0 instructions: 340000070 cycles: 129831268 heartbeat IPC: 1.811 cumulative IPC: 1.836 (Simulation time: 00 hr 43 min 31 sec)
Heartbeat CPU 0 instructions: 350000074 cycles: 135345253 heartbeat IPC: 1.814 cumulative IPC: 1.835 (Simulation time: 00 hr 45 min 20 sec)
Heartbeat CPU 0 instructions: 360000076 cycles: 140877374 heartbeat IPC: 1.808 cumulative IPC: 1.833 (Simulation time: 00 hr 47 min 10 sec)
Heartbeat CPU 0 instructions: 370000080 cycles: 146415799 heartbeat IPC: 1.806 cumulative IPC: 1.831 (Simulation time: 00 hr 48 min 59 sec)
Heartbeat CPU 0 instructions: 380000082 cycles: 151941328 heartbeat IPC: 1.81 cumulative IPC: 1.83 (Simulation time: 00 hr 50 min 49 sec)
Heartbeat CPU 0 instructions: 390000083 cycles: 157465602 heartbeat IPC: 1.81 cumulative IPC: 1.829 (Simulation time: 00 hr 52 min 39 sec)
Heartbeat CPU 0 instructions: 400000085 cycles: 163000207 heartbeat IPC: 1.807 cumulative IPC: 1.828 (Simulation time: 00 hr 54 min 30 sec)
Heartbeat CPU 0 instructions: 410000085 cycles: 168524901 heartbeat IPC: 1.81 cumulative IPC: 1.827 (Simulation time: 00 hr 56 min 20 sec)
Heartbeat CPU 0 instructions: 420000089 cycles: 174059917 heartbeat IPC: 1.807 cumulative IPC: 1.826 (Simulation time: 00 hr 58 min 11 sec)
Heartbeat CPU 0 instructions: 430000089 cycles: 179567355 heartbeat IPC: 1.816 cumulative IPC: 1.826 (Simulation time: 01 hr 00 min 01 sec)
Heartbeat CPU 0 instructions: 440000089 cycles: 185061416 heartbeat IPC: 1.82 cumulative IPC: 1.825 (Simulation time: 01 hr 01 min 51 sec)
Heartbeat CPU 0 instructions: 450000091 cycles: 190591663 heartbeat IPC: 1.808 cumulative IPC: 1.825 (Simulation time: 01 hr 03 min 41 sec)
Heartbeat CPU 0 instructions: 460000095 cycles: 196126227 heartbeat IPC: 1.807 cumulative IPC: 1.824 (Simulation time: 01 hr 05 min 30 sec)
Heartbeat CPU 0 instructions: 470000095 cycles: 201663609 heartbeat IPC: 1.806 cumulative IPC: 1.823 (Simulation time: 01 hr 07 min 20 sec)
Heartbeat CPU 0 instructions: 480000095 cycles: 207177851 heartbeat IPC: 1.813 cumulative IPC: 1.823 (Simulation time: 01 hr 09 min 09 sec)
Heartbeat CPU 0 instructions: 490000096 cycles: 212700373 heartbeat IPC: 1.811 cumulative IPC: 1.823 (Simulation time: 01 hr 10 min 58 sec)
Heartbeat CPU 0 instructions: 500000099 cycles: 218213446 heartbeat IPC: 1.814 cumulative IPC: 1.822 (Simulation time: 01 hr 12 min 48 sec)
Heartbeat CPU 0 instructions: 510000100 cycles: 223745779 heartbeat IPC: 1.808 cumulative IPC: 1.822 (Simulation time: 01 hr 14 min 39 sec)
Heartbeat CPU 0 instructions: 520000102 cycles: 229263728 heartbeat IPC: 1.812 cumulative IPC: 1.822 (Simulation time: 01 hr 16 min 29 sec)
Heartbeat CPU 0 instructions: 530000102 cycles: 234784277 heartbeat IPC: 1.811 cumulative IPC: 1.821 (Simulation time: 01 hr 18 min 17 sec)
Heartbeat CPU 0 instructions: 540000106 cycles: 240312869 heartbeat IPC: 1.809 cumulative IPC: 1.821 (Simulation time: 01 hr 20 min 06 sec)
Heartbeat CPU 0 instructions: 550000106 cycles: 245831803 heartbeat IPC: 1.812 cumulative IPC: 1.821 (Simulation time: 01 hr 21 min 54 sec)
Heartbeat CPU 0 instructions: 560000108 cycles: 251359432 heartbeat IPC: 1.809 cumulative IPC: 1.82 (Simulation time: 01 hr 23 min 43 sec)
Heartbeat CPU 0 instructions: 570000108 cycles: 256868679 heartbeat IPC: 1.815 cumulative IPC: 1.82 (Simulation time: 01 hr 25 min 31 sec)
Heartbeat CPU 0 instructions: 580000112 cycles: 262394816 heartbeat IPC: 1.81 cumulative IPC: 1.82 (Simulation time: 01 hr 27 min 20 sec)
Heartbeat CPU 0 instructions: 590000113 cycles: 267931735 heartbeat IPC: 1.806 cumulative IPC: 1.819 (Simulation time: 01 hr 29 min 09 sec)
Heartbeat CPU 0 instructions: 600000117 cycles: 273423596 heartbeat IPC: 1.821 cumulative IPC: 1.82 (Simulation time: 01 hr 30 min 57 sec)
Heartbeat CPU 0 instructions: 610000117 cycles: 278941192 heartbeat IPC: 1.812 cumulative IPC: 1.819 (Simulation time: 01 hr 32 min 45 sec)
Heartbeat CPU 0 instructions: 620000120 cycles: 284467594 heartbeat IPC: 1.809 cumulative IPC: 1.819 (Simulation time: 01 hr 34 min 34 sec)
Heartbeat CPU 0 instructions: 630000121 cycles: 289988111 heartbeat IPC: 1.811 cumulative IPC: 1.819 (Simulation time: 01 hr 36 min 23 sec)
Heartbeat CPU 0 instructions: 640000124 cycles: 295539338 heartbeat IPC: 1.801 cumulative IPC: 1.819 (Simulation time: 01 hr 38 min 12 sec)
Heartbeat CPU 0 instructions: 650000124 cycles: 301072765 heartbeat IPC: 1.807 cumulative IPC: 1.818 (Simulation time: 01 hr 40 min 01 sec)
Heartbeat CPU 0 instructions: 660000128 cycles: 306598905 heartbeat IPC: 1.81 cumulative IPC: 1.818 (Simulation time: 01 hr 41 min 50 sec)
Heartbeat CPU 0 instructions: 670000128 cycles: 312102730 heartbeat IPC: 1.817 cumulative IPC: 1.818 (Simulation time: 01 hr 43 min 39 sec)
Heartbeat CPU 0 instructions: 680000130 cycles: 317631661 heartbeat IPC: 1.809 cumulative IPC: 1.818 (Simulation time: 01 hr 45 min 28 sec)
Heartbeat CPU 0 instructions: 690000132 cycles: 323150606 heartbeat IPC: 1.812 cumulative IPC: 1.818 (Simulation time: 01 hr 47 min 17 sec)
Heartbeat CPU 0 instructions: 700000133 cycles: 328672946 heartbeat IPC: 1.811 cumulative IPC: 1.818 (Simulation time: 01 hr 49 min 05 sec)
Heartbeat CPU 0 instructions: 710000136 cycles: 334200863 heartbeat IPC: 1.809 cumulative IPC: 1.817 (Simulation time: 01 hr 50 min 55 sec)
Heartbeat CPU 0 instructions: 720000139 cycles: 339711746 heartbeat IPC: 1.815 cumulative IPC: 1.817 (Simulation time: 01 hr 52 min 45 sec)
Heartbeat CPU 0 instructions: 730000142 cycles: 345243040 heartbeat IPC: 1.808 cumulative IPC: 1.817 (Simulation time: 01 hr 54 min 34 sec)
Heartbeat CPU 0 instructions: 740000142 cycles: 350766271 heartbeat IPC: 1.811 cumulative IPC: 1.817 (Simulation time: 01 hr 56 min 23 sec)
Heartbeat CPU 0 instructions: 750000143 cycles: 356290472 heartbeat IPC: 1.81 cumulative IPC: 1.817 (Simulation time: 01 hr 58 min 13 sec)
Heartbeat CPU 0 instructions: 760000146 cycles: 361808541 heartbeat IPC: 1.812 cumulative IPC: 1.817 (Simulation time: 02 hr 00 min 01 sec)
Heartbeat CPU 0 instructions: 770000146 cycles: 367307833 heartbeat IPC: 1.818 cumulative IPC: 1.817 (Simulation time: 02 hr 01 min 50 sec)
Heartbeat CPU 0 instructions: 780000148 cycles: 372823605 heartbeat IPC: 1.813 cumulative IPC: 1.817 (Simulation time: 02 hr 03 min 39 sec)
Heartbeat CPU 0 instructions: 790000149 cycles: 378340397 heartbeat IPC: 1.813 cumulative IPC: 1.817 (Simulation time: 02 hr 05 min 29 sec)
Heartbeat CPU 0 instructions: 800000152 cycles: 383851223 heartbeat IPC: 1.815 cumulative IPC: 1.817 (Simulation time: 02 hr 07 min 19 sec)
Heartbeat CPU 0 instructions: 810000153 cycles: 389403464 heartbeat IPC: 1.801 cumulative IPC: 1.816 (Simulation time: 02 hr 09 min 09 sec)
Heartbeat CPU 0 instructions: 820000157 cycles: 394938266 heartbeat IPC: 1.807 cumulative IPC: 1.816 (Simulation time: 02 hr 10 min 58 sec)
Heartbeat CPU 0 instructions: 830000161 cycles: 400468879 heartbeat IPC: 1.808 cumulative IPC: 1.816 (Simulation time: 02 hr 12 min 47 sec)
Heartbeat CPU 0 instructions: 840000165 cycles: 405989397 heartbeat IPC: 1.811 cumulative IPC: 1.816 (Simulation time: 02 hr 14 min 36 sec)
Heartbeat CPU 0 instructions: 850000165 cycles: 411520391 heartbeat IPC: 1.808 cumulative IPC: 1.816 (Simulation time: 02 hr 16 min 25 sec)
Heartbeat CPU 0 instructions: 860000169 cycles: 417040494 heartbeat IPC: 1.812 cumulative IPC: 1.816 (Simulation time: 02 hr 18 min 14 sec)
Heartbeat CPU 0 instructions: 870000169 cycles: 422566612 heartbeat IPC: 1.81 cumulative IPC: 1.816 (Simulation time: 02 hr 20 min 03 sec)
Heartbeat CPU 0 instructions: 880000169 cycles: 428090515 heartbeat IPC: 1.81 cumulative IPC: 1.816 (Simulation time: 02 hr 21 min 52 sec)
Heartbeat CPU 0 instructions: 890000173 cycles: 433626783 heartbeat IPC: 1.806 cumulative IPC: 1.816 (Simulation time: 02 hr 23 min 41 sec)
Heartbeat CPU 0 instructions: 900000175 cycles: 439161970 heartbeat IPC: 1.807 cumulative IPC: 1.815 (Simulation time: 02 hr 25 min 30 sec)
Heartbeat CPU 0 instructions: 910000175 cycles: 444676321 heartbeat IPC: 1.813 cumulative IPC: 1.815 (Simulation time: 02 hr 27 min 19 sec)
Heartbeat CPU 0 instructions: 920000175 cycles: 450199452 heartbeat IPC: 1.811 cumulative IPC: 1.815 (Simulation time: 02 hr 29 min 08 sec)
Heartbeat CPU 0 instructions: 930000176 cycles: 455724962 heartbeat IPC: 1.81 cumulative IPC: 1.815 (Simulation time: 02 hr 30 min 57 sec)
Heartbeat CPU 0 instructions: 940000178 cycles: 461246682 heartbeat IPC: 1.811 cumulative IPC: 1.815 (Simulation time: 02 hr 32 min 46 sec)
Heartbeat CPU 0 instructions: 950000179 cycles: 466771935 heartbeat IPC: 1.81 cumulative IPC: 1.815 (Simulation time: 02 hr 34 min 36 sec)
Heartbeat CPU 0 instructions: 960000182 cycles: 472310487 heartbeat IPC: 1.806 cumulative IPC: 1.815 (Simulation time: 02 hr 36 min 25 sec)
Heartbeat CPU 0 instructions: 970000182 cycles: 477837916 heartbeat IPC: 1.809 cumulative IPC: 1.815 (Simulation time: 02 hr 38 min 15 sec)
Heartbeat CPU 0 instructions: 980000186 cycles: 483368109 heartbeat IPC: 1.808 cumulative IPC: 1.815 (Simulation time: 02 hr 40 min 04 sec)
Heartbeat CPU 0 instructions: 990000186 cycles: 488883028 heartbeat IPC: 1.813 cumulative IPC: 1.815 (Simulation time: 02 hr 41 min 53 sec)
Heartbeat CPU 0 instructions: 1000000188 cycles: 494392843 heartbeat IPC: 1.815 cumulative IPC: 1.815 (Simulation time: 02 hr 43 min 42 sec)
Heartbeat CPU 0 instructions: 1010000189 cycles: 499903869 heartbeat IPC: 1.815 cumulative IPC: 1.815 (Simulation time: 02 hr 45 min 31 sec)
Heartbeat CPU 0 instructions: 1020000192 cycles: 505447101 heartbeat IPC: 1.804 cumulative IPC: 1.815 (Simulation time: 02 hr 47 min 20 sec)
Heartbeat CPU 0 instructions: 1030000192 cycles: 510971134 heartbeat IPC: 1.81 cumulative IPC: 1.815 (Simulation time: 02 hr 49 min 09 sec)
Heartbeat CPU 0 instructions: 1040000192 cycles: 516488057 heartbeat IPC: 1.813 cumulative IPC: 1.815 (Simulation time: 02 hr 50 min 58 sec)
Heartbeat CPU 0 instructions: 1050000196 cycles: 522002605 heartbeat IPC: 1.813 cumulative IPC: 1.815 (Simulation time: 02 hr 52 min 47 sec)
Heartbeat CPU 0 instructions: 1060000200 cycles: 527517118 heartbeat IPC: 1.813 cumulative IPC: 1.815 (Simulation time: 02 hr 54 min 36 sec)
Heartbeat CPU 0 instructions: 1070000201 cycles: 533034677 heartbeat IPC: 1.812 cumulative IPC: 1.815 (Simulation time: 02 hr 56 min 25 sec)
Heartbeat CPU 0 instructions: 1080000204 cycles: 538557404 heartbeat IPC: 1.811 cumulative IPC: 1.815 (Simulation time: 02 hr 58 min 13 sec)
Heartbeat CPU 0 instructions: 1090000204 cycles: 544076567 heartbeat IPC: 1.812 cumulative IPC: 1.815 (Simulation time: 03 hr 00 min 02 sec)
Heartbeat CPU 0 instructions: 1100000206 cycles: 549618671 heartbeat IPC: 1.804 cumulative IPC: 1.814 (Simulation time: 03 hr 01 min 52 sec)
Heartbeat CPU 0 instructions: 1110000208 cycles: 555149683 heartbeat IPC: 1.808 cumulative IPC: 1.814 (Simulation time: 03 hr 03 min 41 sec)
Heartbeat CPU 0 instructions: 1120000209 cycles: 560662105 heartbeat IPC: 1.814 cumulative IPC: 1.814 (Simulation time: 03 hr 05 min 30 sec)
Heartbeat CPU 0 instructions: 1130000211 cycles: 566191831 heartbeat IPC: 1.808 cumulative IPC: 1.814 (Simulation time: 03 hr 07 min 19 sec)
Heartbeat CPU 0 instructions: 1140000213 cycles: 571700042 heartbeat IPC: 1.815 cumulative IPC: 1.814 (Simulation time: 03 hr 09 min 08 sec)
Heartbeat CPU 0 instructions: 1150000217 cycles: 577217397 heartbeat IPC: 1.812 cumulative IPC: 1.814 (Simulation time: 03 hr 10 min 58 sec)
Heartbeat CPU 0 instructions: 1160000218 cycles: 582743872 heartbeat IPC: 1.809 cumulative IPC: 1.814 (Simulation time: 03 hr 12 min 48 sec)
Heartbeat CPU 0 instructions: 1170000219 cycles: 588253379 heartbeat IPC: 1.815 cumulative IPC: 1.814 (Simulation time: 03 hr 14 min 39 sec)
Heartbeat CPU 0 instructions: 1180000222 cycles: 593789165 heartbeat IPC: 1.806 cumulative IPC: 1.814 (Simulation time: 03 hr 16 min 28 sec)
Heartbeat CPU 0 instructions: 1190000223 cycles: 599296580 heartbeat IPC: 1.816 cumulative IPC: 1.814 (Simulation time: 03 hr 18 min 17 sec)
Simulation finished CPU 0 instructions: 1000000000 cycles: 551226108 cumulative IPC: 1.814 (Simulation time: 03 hr 20 min 06 sec)
Simulation complete CPU 0 instructions: 1000000000 cycles: 551226108 cumulative IPC: 1.814 (Simulation time: 03 hr 20 min 06 sec)

ChampSim completed all CPUs

=== Simulation ===
CPU 0 runs /home/grads/b/bhavishya_k_s/ecen676/ChampSim/dpc3_traces/649.fotonik3d_s-1176B.champsimtrace.xz

Region of Interest Statistics

CPU 0 cumulative IPC: 1.814 instructions: 1000000000 cycles: 551226108
CPU 0 Branch Prediction Accuracy: 99.8% MPKI: 0.03676 Average ROB Occupancy at Mispredict: 91.69
Branch type MPKI
BRANCH_DIRECT_JUMP: 8.9e-05
BRANCH_INDIRECT: 0
BRANCH_CONDITIONAL: 0.02864
BRANCH_DIRECT_CALL: 1.6e-05
BRANCH_INDIRECT_CALL: 0
BRANCH_RETURN: 0.008018

cpu0->cpu0_STLB TOTAL        ACCESS:     233597 HIT:      96772 MISS:     136825 MSHR_MERGE:          0
cpu0->cpu0_STLB LOAD         ACCESS:     233597 HIT:      96772 MISS:     136825 MSHR_MERGE:          0
cpu0->cpu0_STLB RFO          ACCESS:          0 HIT:          0 MISS:          0 MSHR_MERGE:          0
cpu0->cpu0_STLB PREFETCH     ACCESS:          0 HIT:          0 MISS:          0 MSHR_MERGE:          0
cpu0->cpu0_STLB WRITE        ACCESS:          0 HIT:          0 MISS:          0 MSHR_MERGE:          0
cpu0->cpu0_STLB TRANSLATION  ACCESS:          0 HIT:          0 MISS:          0 MSHR_MERGE:          0
cpu0->cpu0_STLB PREFETCH REQUESTED:          0 ISSUED:          0 USEFUL:          0 USELESS:          0
cpu0->cpu0_STLB AVERAGE MISS LATENCY: 210.3 cycles
cpu0->cpu0_L2C TOTAL        ACCESS:  189280279 HIT:   55305447 MISS:  133974832 MSHR_MERGE:     299924
cpu0->cpu0_L2C LOAD         ACCESS:   13174183 HIT:   10148339 MISS:    3025844 MSHR_MERGE:     293635
cpu0->cpu0_L2C RFO          ACCESS:      17295 HIT:      15605 MISS:       1690 MSHR_MERGE:          0
cpu0->cpu0_L2C PREFETCH     ACCESS:  167326726 HIT:   36381352 MISS:  130945374 MSHR_MERGE:       6289
cpu0->cpu0_L2C WRITE        ACCESS:    8756644 HIT:    8756644 MISS:          0 MSHR_MERGE:          0
cpu0->cpu0_L2C TRANSLATION  ACCESS:       5431 HIT:       3507 MISS:       1924 MSHR_MERGE:          0
cpu0->cpu0_L2C PREFETCH REQUESTED:  248281693 ISSUED:  167326722 USEFUL:    6846862 USELESS:       1898
cpu0->cpu0_L2C AVERAGE MISS LATENCY: 43.73 cycles
cpu0->cpu0_L1I TOTAL        ACCESS:  194612729 HIT:  194612330 MISS:        399 MSHR_MERGE:        122
cpu0->cpu0_L1I LOAD         ACCESS:  194612729 HIT:  194612330 MISS:        399 MSHR_MERGE:        122
cpu0->cpu0_L1I RFO          ACCESS:          0 HIT:          0 MISS:          0 MSHR_MERGE:          0
cpu0->cpu0_L1I PREFETCH     ACCESS:          0 HIT:          0 MISS:          0 MSHR_MERGE:          0
cpu0->cpu0_L1I WRITE        ACCESS:          0 HIT:          0 MISS:          0 MSHR_MERGE:          0
cpu0->cpu0_L1I TRANSLATION  ACCESS:          0 HIT:          0 MISS:          0 MSHR_MERGE:          0
cpu0->cpu0_L1I PREFETCH REQUESTED:          0 ISSUED:          0 USEFUL:          0 USELESS:          0
cpu0->cpu0_L1I AVERAGE MISS LATENCY: 118.5 cycles
cpu0->cpu0_L1D TOTAL        ACCESS:  310510243 HIT:  278772840 MISS:   31737403 MSHR_MERGE:   18540771
cpu0->cpu0_L1D LOAD         ACCESS:  240065806 HIT:  208389058 MISS:   31676748 MSHR_MERGE:   18502842
cpu0->cpu0_L1D RFO          ACCESS:          0 HIT:          0 MISS:          0 MSHR_MERGE:          0
cpu0->cpu0_L1D PREFETCH     ACCESS:          0 HIT:          0 MISS:          0 MSHR_MERGE:          0
cpu0->cpu0_L1D WRITE        ACCESS:   70307133 HIT:   70251910 MISS:      55223 MSHR_MERGE:      37928
cpu0->cpu0_L1D TRANSLATION  ACCESS:     137304 HIT:     131872 MISS:       5432 MSHR_MERGE:          1
cpu0->cpu0_L1D PREFETCH REQUESTED:          0 ISSUED:          0 USEFUL:          0 USELESS:          0
cpu0->cpu0_L1D AVERAGE MISS LATENCY: 18.27 cycles
cpu0->cpu0_ITLB TOTAL        ACCESS:  158063653 HIT:  158063628 MISS:         25 MSHR_MERGE:         14
cpu0->cpu0_ITLB LOAD         ACCESS:  158063653 HIT:  158063628 MISS:         25 MSHR_MERGE:         14
cpu0->cpu0_ITLB RFO          ACCESS:          0 HIT:          0 MISS:          0 MSHR_MERGE:          0
cpu0->cpu0_ITLB PREFETCH     ACCESS:          0 HIT:          0 MISS:          0 MSHR_MERGE:          0
cpu0->cpu0_ITLB WRITE        ACCESS:          0 HIT:          0 MISS:          0 MSHR_MERGE:          0
cpu0->cpu0_ITLB TRANSLATION  ACCESS:          0 HIT:          0 MISS:          0 MSHR_MERGE:          0
cpu0->cpu0_ITLB PREFETCH REQUESTED:          0 ISSUED:          0 USEFUL:          0 USELESS:          0
cpu0->cpu0_ITLB AVERAGE MISS LATENCY: 493.5 cycles
cpu0->cpu0_DTLB TOTAL        ACCESS:  290205202 HIT:  289330269 MISS:     874933 MSHR_MERGE:     641347
cpu0->cpu0_DTLB LOAD         ACCESS:  290205202 HIT:  289330269 MISS:     874933 MSHR_MERGE:     641347
cpu0->cpu0_DTLB RFO          ACCESS:          0 HIT:          0 MISS:          0 MSHR_MERGE:          0
cpu0->cpu0_DTLB PREFETCH     ACCESS:          0 HIT:          0 MISS:          0 MSHR_MERGE:          0
cpu0->cpu0_DTLB WRITE        ACCESS:          0 HIT:          0 MISS:          0 MSHR_MERGE:          0
cpu0->cpu0_DTLB TRANSLATION  ACCESS:          0 HIT:          0 MISS:          0 MSHR_MERGE:          0
cpu0->cpu0_DTLB PREFETCH REQUESTED:          0 ISSUED:          0 USEFUL:          0 USELESS:          0
cpu0->cpu0_DTLB AVERAGE MISS LATENCY: 128.8 cycles
cpu0->LLC TOTAL        ACCESS:  141135051 HIT:   71111406 MISS:   70023645 MSHR_MERGE:   61135093
cpu0->LLC LOAD         ACCESS:    2732209 HIT:    2431659 MISS:     300550 MSHR_MERGE:      92155
cpu0->LLC RFO          ACCESS:       1690 HIT:       1678 MISS:         12 MSHR_MERGE:          1
cpu0->LLC PREFETCH     ACCESS:  129660339 HIT:   59940256 MISS:   69720083 MSHR_MERGE:   61042937
cpu0->LLC WRITE        ACCESS:    8738889 HIT:    8737054 MISS:       1835 MSHR_MERGE:          0
cpu0->LLC TRANSLATION  ACCESS:       1924 HIT:        759 MISS:       1165 MSHR_MERGE:          0
cpu0->LLC PREFETCH REQUESTED:          0 ISSUED:          0 USEFUL:          0 USELESS:          0
cpu0->LLC AVERAGE MISS LATENCY: 187.4 cycles

DRAM Statistics

Channel 0 RQ ROW_BUFFER_HIT:     490124
  ROW_BUFFER_MISS:    8396573
  AVG DBUS CONGESTED CYCLE: 5.887
Channel 0 WQ ROW_BUFFER_HIT:    1945972
  ROW_BUFFER_MISS:    6791296
  FULL:        101
Channel 0 REFRESHES ISSUED:      45935
