[VMEM] WARNING: physical memory size is smaller than virtual memory size.
WARNING: option --warmup_instructions is deprecated. Use --warmup-instructions instead.
WARNING: option --simulation_instructions is deprecated. Use --simulation-instructions instead.

*** ChampSim Multicore Out-of-Order Simulator ***
Warmup Instructions: 200000000
Simulation Instructions: 1000000000
Number of CPUs: 1
Page size: 4096

Initialize SIGNATURE TABLE
ST_SET: 1
ST_WAY: 256
ST_TAG_BIT: 16

Initialize PATTERN TABLE
PT_SET: 512
PT_WAY: 4
SIG_DELTA_BIT: 7
C_SIG_BIT: 4
C_DELTA_BIT: 4

Initialize PREFETCH FILTER
FILTER_SET: 1024
Off-chip DRAM Size: 16 GiB Channels: 1 Width: 64-bit Data Rate: 3205 MT/s
Heartbeat CPU 0 instructions: 10000002 cycles: 2792772 heartbeat IPC: 3.581 cumulative IPC: 3.581 (Simulation time: 00 hr 01 min 00 sec)
Heartbeat CPU 0 instructions: 20000004 cycles: 5644859 heartbeat IPC: 3.506 cumulative IPC: 3.543 (Simulation time: 00 hr 02 min 02 sec)
Heartbeat CPU 0 instructions: 30000007 cycles: 8497633 heartbeat IPC: 3.505 cumulative IPC: 3.53 (Simulation time: 00 hr 03 min 05 sec)
Heartbeat CPU 0 instructions: 40000010 cycles: 11353854 heartbeat IPC: 3.501 cumulative IPC: 3.523 (Simulation time: 00 hr 04 min 07 sec)
Heartbeat CPU 0 instructions: 50000010 cycles: 14193565 heartbeat IPC: 3.521 cumulative IPC: 3.523 (Simulation time: 00 hr 05 min 10 sec)
Heartbeat CPU 0 instructions: 60000013 cycles: 17005152 heartbeat IPC: 3.557 cumulative IPC: 3.528 (Simulation time: 00 hr 06 min 11 sec)
Heartbeat CPU 0 instructions: 70000013 cycles: 19901824 heartbeat IPC: 3.452 cumulative IPC: 3.517 (Simulation time: 00 hr 07 min 13 sec)
Heartbeat CPU 0 instructions: 80000015 cycles: 22803008 heartbeat IPC: 3.447 cumulative IPC: 3.508 (Simulation time: 00 hr 08 min 17 sec)
Heartbeat CPU 0 instructions: 90000016 cycles: 25582942 heartbeat IPC: 3.597 cumulative IPC: 3.518 (Simulation time: 00 hr 09 min 17 sec)
Heartbeat CPU 0 instructions: 100000018 cycles: 28400473 heartbeat IPC: 3.549 cumulative IPC: 3.521 (Simulation time: 00 hr 10 min 18 sec)
Heartbeat CPU 0 instructions: 110000018 cycles: 31287698 heartbeat IPC: 3.464 cumulative IPC: 3.516 (Simulation time: 00 hr 11 min 22 sec)
Heartbeat CPU 0 instructions: 120000018 cycles: 34186941 heartbeat IPC: 3.449 cumulative IPC: 3.51 (Simulation time: 00 hr 12 min 25 sec)
Heartbeat CPU 0 instructions: 130000021 cycles: 36988853 heartbeat IPC: 3.569 cumulative IPC: 3.515 (Simulation time: 00 hr 13 min 26 sec)
Heartbeat CPU 0 instructions: 140000025 cycles: 39780533 heartbeat IPC: 3.582 cumulative IPC: 3.519 (Simulation time: 00 hr 14 min 27 sec)
Heartbeat CPU 0 instructions: 150000025 cycles: 42613328 heartbeat IPC: 3.53 cumulative IPC: 3.52 (Simulation time: 00 hr 15 min 30 sec)
Heartbeat CPU 0 instructions: 160000029 cycles: 45507663 heartbeat IPC: 3.455 cumulative IPC: 3.516 (Simulation time: 00 hr 16 min 34 sec)
Heartbeat CPU 0 instructions: 170000032 cycles: 48337308 heartbeat IPC: 3.534 cumulative IPC: 3.517 (Simulation time: 00 hr 17 min 36 sec)
Heartbeat CPU 0 instructions: 180000035 cycles: 51197720 heartbeat IPC: 3.496 cumulative IPC: 3.516 (Simulation time: 00 hr 18 min 44 sec)
Heartbeat CPU 0 instructions: 190000037 cycles: 54090818 heartbeat IPC: 3.457 cumulative IPC: 3.513 (Simulation time: 00 hr 19 min 48 sec)
Warmup finished CPU 0 instructions: 200000001 cycles: 56918553 cumulative IPC: 3.514 (Simulation time: 00 hr 20 min 49 sec)
Warmup complete CPU 0 instructions: 200000001 cycles: 56918553 cumulative IPC: 3.514 (Simulation time: 00 hr 20 min 49 sec)
Heartbeat CPU 0 instructions: 200000041 cycles: 56918564 heartbeat IPC: 3.536 cumulative IPC: 3.636 (Simulation time: 00 hr 20 min 49 sec)
Heartbeat CPU 0 instructions: 210000042 cycles: 61265397 heartbeat IPC: 2.301 cumulative IPC: 2.301 (Simulation time: 00 hr 21 min 53 sec)
Heartbeat CPU 0 instructions: 220000042 cycles: 65565903 heartbeat IPC: 2.325 cumulative IPC: 2.313 (Simulation time: 00 hr 22 min 59 sec)
Heartbeat CPU 0 instructions: 230000042 cycles: 69730894 heartbeat IPC: 2.401 cumulative IPC: 2.341 (Simulation time: 00 hr 24 min 03 sec)
Heartbeat CPU 0 instructions: 240000044 cycles: 74034645 heartbeat IPC: 2.324 cumulative IPC: 2.337 (Simulation time: 00 hr 25 min 08 sec)
Heartbeat CPU 0 instructions: 250000048 cycles: 78392275 heartbeat IPC: 2.295 cumulative IPC: 2.328 (Simulation time: 00 hr 26 min 16 sec)
Heartbeat CPU 0 instructions: 260000048 cycles: 82681517 heartbeat IPC: 2.331 cumulative IPC: 2.329 (Simulation time: 00 hr 27 min 20 sec)
Heartbeat CPU 0 instructions: 270000051 cycles: 86914155 heartbeat IPC: 2.363 cumulative IPC: 2.334 (Simulation time: 00 hr 28 min 22 sec)
Heartbeat CPU 0 instructions: 280000051 cycles: 91103215 heartbeat IPC: 2.387 cumulative IPC: 2.34 (Simulation time: 00 hr 29 min 25 sec)
Heartbeat CPU 0 instructions: 290000051 cycles: 95337962 heartbeat IPC: 2.361 cumulative IPC: 2.343 (Simulation time: 00 hr 30 min 28 sec)
Heartbeat CPU 0 instructions: 300000052 cycles: 99737098 heartbeat IPC: 2.273 cumulative IPC: 2.335 (Simulation time: 00 hr 31 min 33 sec)
Heartbeat CPU 0 instructions: 310000055 cycles: 104200109 heartbeat IPC: 2.241 cumulative IPC: 2.326 (Simulation time: 00 hr 32 min 36 sec)
Heartbeat CPU 0 instructions: 320000058 cycles: 108513400 heartbeat IPC: 2.318 cumulative IPC: 2.326 (Simulation time: 00 hr 33 min 39 sec)
Heartbeat CPU 0 instructions: 330000059 cycles: 112850953 heartbeat IPC: 2.305 cumulative IPC: 2.324 (Simulation time: 00 hr 34 min 46 sec)
Heartbeat CPU 0 instructions: 340000060 cycles: 117240672 heartbeat IPC: 2.278 cumulative IPC: 2.321 (Simulation time: 00 hr 35 min 50 sec)
Heartbeat CPU 0 instructions: 350000061 cycles: 121632869 heartbeat IPC: 2.277 cumulative IPC: 2.318 (Simulation time: 00 hr 36 min 53 sec)
Heartbeat CPU 0 instructions: 360000063 cycles: 126070806 heartbeat IPC: 2.253 cumulative IPC: 2.314 (Simulation time: 00 hr 37 min 57 sec)
Heartbeat CPU 0 instructions: 370000064 cycles: 130253830 heartbeat IPC: 2.391 cumulative IPC: 2.318 (Simulation time: 00 hr 39 min 00 sec)
Heartbeat CPU 0 instructions: 380000064 cycles: 134485468 heartbeat IPC: 2.363 cumulative IPC: 2.321 (Simulation time: 00 hr 40 min 03 sec)
Heartbeat CPU 0 instructions: 390000068 cycles: 138822413 heartbeat IPC: 2.306 cumulative IPC: 2.32 (Simulation time: 00 hr 41 min 06 sec)
Heartbeat CPU 0 instructions: 400000070 cycles: 143084429 heartbeat IPC: 2.346 cumulative IPC: 2.321 (Simulation time: 00 hr 42 min 08 sec)
Heartbeat CPU 0 instructions: 410000070 cycles: 147363626 heartbeat IPC: 2.337 cumulative IPC: 2.322 (Simulation time: 00 hr 43 min 12 sec)
Heartbeat CPU 0 instructions: 420000070 cycles: 151526078 heartbeat IPC: 2.402 cumulative IPC: 2.325 (Simulation time: 00 hr 44 min 14 sec)
Heartbeat CPU 0 instructions: 430000071 cycles: 155848686 heartbeat IPC: 2.313 cumulative IPC: 2.325 (Simulation time: 00 hr 45 min 18 sec)
Heartbeat CPU 0 instructions: 440000073 cycles: 160266250 heartbeat IPC: 2.264 cumulative IPC: 2.322 (Simulation time: 00 hr 46 min 21 sec)
Heartbeat CPU 0 instructions: 450000073 cycles: 164513858 heartbeat IPC: 2.354 cumulative IPC: 2.324 (Simulation time: 00 hr 47 min 24 sec)
Heartbeat CPU 0 instructions: 460000074 cycles: 168979897 heartbeat IPC: 2.239 cumulative IPC: 2.32 (Simulation time: 00 hr 48 min 30 sec)
Heartbeat CPU 0 instructions: 470000077 cycles: 175991100 heartbeat IPC: 1.426 cumulative IPC: 2.268 (Simulation time: 00 hr 49 min 55 sec)
Heartbeat CPU 0 instructions: 480000078 cycles: 182226078 heartbeat IPC: 1.604 cumulative IPC: 2.235 (Simulation time: 00 hr 51 min 14 sec)
Heartbeat CPU 0 instructions: 490000079 cycles: 187199189 heartbeat IPC: 2.011 cumulative IPC: 2.226 (Simulation time: 00 hr 52 min 29 sec)
Heartbeat CPU 0 instructions: 500000079 cycles: 192313379 heartbeat IPC: 1.955 cumulative IPC: 2.216 (Simulation time: 00 hr 53 min 41 sec)
Heartbeat CPU 0 instructions: 510000081 cycles: 200691206 heartbeat IPC: 1.194 cumulative IPC: 2.156 (Simulation time: 00 hr 55 min 12 sec)
Heartbeat CPU 0 instructions: 520000084 cycles: 211674165 heartbeat IPC: 0.9105 cumulative IPC: 2.068 (Simulation time: 00 hr 57 min 08 sec)
Heartbeat CPU 0 instructions: 530000088 cycles: 220950897 heartbeat IPC: 1.078 cumulative IPC: 2.012 (Simulation time: 00 hr 58 min 52 sec)
Heartbeat CPU 0 instructions: 540000089 cycles: 229743518 heartbeat IPC: 1.137 cumulative IPC: 1.967 (Simulation time: 01 hr 00 min 31 sec)
Heartbeat CPU 0 instructions: 550000091 cycles: 240726600 heartbeat IPC: 0.9105 cumulative IPC: 1.904 (Simulation time: 01 hr 02 min 23 sec)
Heartbeat CPU 0 instructions: 560000093 cycles: 246036560 heartbeat IPC: 1.883 cumulative IPC: 1.904 (Simulation time: 01 hr 03 min 34 sec)
Heartbeat CPU 0 instructions: 570000097 cycles: 251172747 heartbeat IPC: 1.947 cumulative IPC: 1.905 (Simulation time: 01 hr 04 min 45 sec)
Heartbeat CPU 0 instructions: 580000099 cycles: 256496328 heartbeat IPC: 1.878 cumulative IPC: 1.904 (Simulation time: 01 hr 05 min 56 sec)
Heartbeat CPU 0 instructions: 590000100 cycles: 261869371 heartbeat IPC: 1.861 cumulative IPC: 1.903 (Simulation time: 01 hr 07 min 07 sec)
Heartbeat CPU 0 instructions: 600000103 cycles: 270860570 heartbeat IPC: 1.112 cumulative IPC: 1.87 (Simulation time: 01 hr 08 min 43 sec)
Heartbeat CPU 0 instructions: 610000103 cycles: 281603973 heartbeat IPC: 0.9308 cumulative IPC: 1.825 (Simulation time: 01 hr 10 min 31 sec)
Heartbeat CPU 0 instructions: 620000103 cycles: 292180808 heartbeat IPC: 0.9455 cumulative IPC: 1.785 (Simulation time: 01 hr 12 min 16 sec)
Heartbeat CPU 0 instructions: 630000104 cycles: 300552313 heartbeat IPC: 1.195 cumulative IPC: 1.765 (Simulation time: 01 hr 13 min 46 sec)
Heartbeat CPU 0 instructions: 640000108 cycles: 310011068 heartbeat IPC: 1.057 cumulative IPC: 1.738 (Simulation time: 01 hr 15 min 30 sec)
Heartbeat CPU 0 instructions: 650000108 cycles: 321232436 heartbeat IPC: 0.8912 cumulative IPC: 1.703 (Simulation time: 01 hr 17 min 21 sec)
Heartbeat CPU 0 instructions: 660000111 cycles: 331935803 heartbeat IPC: 0.9343 cumulative IPC: 1.673 (Simulation time: 01 hr 19 min 08 sec)
Heartbeat CPU 0 instructions: 670000113 cycles: 339061023 heartbeat IPC: 1.403 cumulative IPC: 1.666 (Simulation time: 01 hr 20 min 30 sec)
Heartbeat CPU 0 instructions: 680000114 cycles: 352021411 heartbeat IPC: 0.7716 cumulative IPC: 1.627 (Simulation time: 01 hr 22 min 31 sec)
Heartbeat CPU 0 instructions: 690000114 cycles: 362947790 heartbeat IPC: 0.9152 cumulative IPC: 1.601 (Simulation time: 01 hr 24 min 20 sec)
Heartbeat CPU 0 instructions: 700000117 cycles: 367331111 heartbeat IPC: 2.281 cumulative IPC: 1.611 (Simulation time: 01 hr 25 min 21 sec)
Heartbeat CPU 0 instructions: 710000117 cycles: 371787199 heartbeat IPC: 2.244 cumulative IPC: 1.62 (Simulation time: 01 hr 26 min 23 sec)
Heartbeat CPU 0 instructions: 720000120 cycles: 376290456 heartbeat IPC: 2.221 cumulative IPC: 1.628 (Simulation time: 01 hr 27 min 25 sec)
Heartbeat CPU 0 instructions: 730000122 cycles: 380600057 heartbeat IPC: 2.32 cumulative IPC: 1.637 (Simulation time: 01 hr 28 min 25 sec)
Heartbeat CPU 0 instructions: 740000124 cycles: 385084305 heartbeat IPC: 2.23 cumulative IPC: 1.646 (Simulation time: 01 hr 29 min 28 sec)
Heartbeat CPU 0 instructions: 750000124 cycles: 389575735 heartbeat IPC: 2.226 cumulative IPC: 1.653 (Simulation time: 01 hr 30 min 30 sec)
Heartbeat CPU 0 instructions: 760000125 cycles: 394181326 heartbeat IPC: 2.171 cumulative IPC: 1.66 (Simulation time: 01 hr 31 min 31 sec)
Heartbeat CPU 0 instructions: 770000125 cycles: 398608034 heartbeat IPC: 2.259 cumulative IPC: 1.668 (Simulation time: 01 hr 32 min 32 sec)
Heartbeat CPU 0 instructions: 780000127 cycles: 402900527 heartbeat IPC: 2.33 cumulative IPC: 1.676 (Simulation time: 01 hr 33 min 34 sec)
Heartbeat CPU 0 instructions: 790000127 cycles: 407435910 heartbeat IPC: 2.205 cumulative IPC: 1.683 (Simulation time: 01 hr 34 min 36 sec)
Heartbeat CPU 0 instructions: 800000128 cycles: 411761287 heartbeat IPC: 2.312 cumulative IPC: 1.691 (Simulation time: 01 hr 35 min 38 sec)
Heartbeat CPU 0 instructions: 810000129 cycles: 416462265 heartbeat IPC: 2.127 cumulative IPC: 1.697 (Simulation time: 01 hr 36 min 41 sec)
Heartbeat CPU 0 instructions: 820000132 cycles: 421063825 heartbeat IPC: 2.173 cumulative IPC: 1.703 (Simulation time: 01 hr 37 min 42 sec)
Heartbeat CPU 0 instructions: 830000133 cycles: 425621772 heartbeat IPC: 2.194 cumulative IPC: 1.709 (Simulation time: 01 hr 38 min 43 sec)
Heartbeat CPU 0 instructions: 840000137 cycles: 430207724 heartbeat IPC: 2.181 cumulative IPC: 1.714 (Simulation time: 01 hr 39 min 45 sec)
Heartbeat CPU 0 instructions: 850000138 cycles: 434698010 heartbeat IPC: 2.227 cumulative IPC: 1.721 (Simulation time: 01 hr 40 min 48 sec)
Heartbeat CPU 0 instructions: 860000140 cycles: 439115642 heartbeat IPC: 2.264 cumulative IPC: 1.727 (Simulation time: 01 hr 41 min 50 sec)
Heartbeat CPU 0 instructions: 870000140 cycles: 443401664 heartbeat IPC: 2.333 cumulative IPC: 1.734 (Simulation time: 01 hr 42 min 52 sec)
Heartbeat CPU 0 instructions: 880000144 cycles: 447792900 heartbeat IPC: 2.277 cumulative IPC: 1.74 (Simulation time: 01 hr 43 min 54 sec)
Heartbeat CPU 0 instructions: 890000145 cycles: 452211330 heartbeat IPC: 2.263 cumulative IPC: 1.746 (Simulation time: 01 hr 44 min 56 sec)
Heartbeat CPU 0 instructions: 900000145 cycles: 456647721 heartbeat IPC: 2.254 cumulative IPC: 1.751 (Simulation time: 01 hr 45 min 57 sec)
Heartbeat CPU 0 instructions: 910000145 cycles: 461197034 heartbeat IPC: 2.198 cumulative IPC: 1.756 (Simulation time: 01 hr 47 min 02 sec)
Heartbeat CPU 0 instructions: 920000145 cycles: 465676994 heartbeat IPC: 2.232 cumulative IPC: 1.761 (Simulation time: 01 hr 48 min 05 sec)
Heartbeat CPU 0 instructions: 930000147 cycles: 470300957 heartbeat IPC: 2.163 cumulative IPC: 1.766 (Simulation time: 01 hr 49 min 13 sec)
Heartbeat CPU 0 instructions: 940000147 cycles: 474864965 heartbeat IPC: 2.191 cumulative IPC: 1.771 (Simulation time: 01 hr 50 min 21 sec)
Heartbeat CPU 0 instructions: 950000148 cycles: 479241027 heartbeat IPC: 2.285 cumulative IPC: 1.776 (Simulation time: 01 hr 51 min 26 sec)
Heartbeat CPU 0 instructions: 960000148 cycles: 483704410 heartbeat IPC: 2.24 cumulative IPC: 1.781 (Simulation time: 01 hr 52 min 28 sec)
Heartbeat CPU 0 instructions: 970000149 cycles: 488174321 heartbeat IPC: 2.237 cumulative IPC: 1.785 (Simulation time: 01 hr 53 min 29 sec)
Heartbeat CPU 0 instructions: 980000150 cycles: 492726683 heartbeat IPC: 2.197 cumulative IPC: 1.79 (Simulation time: 01 hr 54 min 34 sec)
Heartbeat CPU 0 instructions: 990000153 cycles: 497122100 heartbeat IPC: 2.275 cumulative IPC: 1.795 (Simulation time: 01 hr 55 min 34 sec)
Heartbeat CPU 0 instructions: 1000000153 cycles: 501654574 heartbeat IPC: 2.206 cumulative IPC: 1.799 (Simulation time: 01 hr 56 min 39 sec)
Heartbeat CPU 0 instructions: 1010000154 cycles: 506223464 heartbeat IPC: 2.189 cumulative IPC: 1.803 (Simulation time: 01 hr 57 min 42 sec)
Heartbeat CPU 0 instructions: 1020000158 cycles: 510676683 heartbeat IPC: 2.246 cumulative IPC: 1.807 (Simulation time: 01 hr 58 min 43 sec)
Heartbeat CPU 0 instructions: 1030000161 cycles: 515109126 heartbeat IPC: 2.256 cumulative IPC: 1.811 (Simulation time: 01 hr 59 min 44 sec)
Heartbeat CPU 0 instructions: 1040000161 cycles: 519507635 heartbeat IPC: 2.273 cumulative IPC: 1.816 (Simulation time: 02 hr 00 min 45 sec)
Heartbeat CPU 0 instructions: 1050000161 cycles: 523906615 heartbeat IPC: 2.273 cumulative IPC: 1.82 (Simulation time: 02 hr 01 min 47 sec)
Heartbeat CPU 0 instructions: 1060000162 cycles: 528421552 heartbeat IPC: 2.215 cumulative IPC: 1.824 (Simulation time: 02 hr 02 min 50 sec)
Heartbeat CPU 0 instructions: 1070000164 cycles: 532966910 heartbeat IPC: 2.2 cumulative IPC: 1.828 (Simulation time: 02 hr 03 min 51 sec)
Heartbeat CPU 0 instructions: 1080000164 cycles: 537404152 heartbeat IPC: 2.254 cumulative IPC: 1.831 (Simulation time: 02 hr 04 min 52 sec)
Heartbeat CPU 0 instructions: 1090000167 cycles: 542064063 heartbeat IPC: 2.146 cumulative IPC: 1.835 (Simulation time: 02 hr 05 min 59 sec)
Heartbeat CPU 0 instructions: 1100000168 cycles: 546585204 heartbeat IPC: 2.212 cumulative IPC: 1.838 (Simulation time: 02 hr 07 min 01 sec)
Heartbeat CPU 0 instructions: 1110000168 cycles: 551167002 heartbeat IPC: 2.183 cumulative IPC: 1.841 (Simulation time: 02 hr 08 min 03 sec)
Heartbeat CPU 0 instructions: 1120000171 cycles: 555570370 heartbeat IPC: 2.271 cumulative IPC: 1.845 (Simulation time: 02 hr 09 min 05 sec)
Heartbeat CPU 0 instructions: 1130000175 cycles: 559963886 heartbeat IPC: 2.276 cumulative IPC: 1.849 (Simulation time: 02 hr 10 min 08 sec)
Heartbeat CPU 0 instructions: 1140000178 cycles: 564548931 heartbeat IPC: 2.181 cumulative IPC: 1.852 (Simulation time: 02 hr 11 min 09 sec)
Heartbeat CPU 0 instructions: 1150000180 cycles: 568988217 heartbeat IPC: 2.253 cumulative IPC: 1.855 (Simulation time: 02 hr 12 min 10 sec)
Heartbeat CPU 0 instructions: 1160000184 cycles: 573415550 heartbeat IPC: 2.259 cumulative IPC: 1.859 (Simulation time: 02 hr 13 min 11 sec)
Heartbeat CPU 0 instructions: 1170000187 cycles: 577747049 heartbeat IPC: 2.309 cumulative IPC: 1.862 (Simulation time: 02 hr 14 min 13 sec)
Heartbeat CPU 0 instructions: 1180000188 cycles: 582227346 heartbeat IPC: 2.232 cumulative IPC: 1.866 (Simulation time: 02 hr 15 min 14 sec)
Heartbeat CPU 0 instructions: 1190000189 cycles: 586773620 heartbeat IPC: 2.2 cumulative IPC: 1.868 (Simulation time: 02 hr 16 min 15 sec)
Simulation finished CPU 0 instructions: 1000000003 cycles: 534457080 cumulative IPC: 1.871 (Simulation time: 02 hr 17 min 17 sec)
Simulation complete CPU 0 instructions: 1000000003 cycles: 534457080 cumulative IPC: 1.871 (Simulation time: 02 hr 17 min 17 sec)

ChampSim completed all CPUs

=== Simulation ===
CPU 0 runs /home/grads/r/raveena_manasi/ECEN_676/ChampSim/dpc3_traces/600.perlbench_s-210B.champsimtrace.xz

Region of Interest Statistics

CPU 0 cumulative IPC: 1.871 instructions: 1000000003 cycles: 534457080
CPU 0 Branch Prediction Accuracy: 96.89% MPKI: 4.626 Average ROB Occupancy at Mispredict: 97.84
Branch type MPKI
BRANCH_DIRECT_JUMP: 0.04858
BRANCH_INDIRECT: 0.3106
BRANCH_CONDITIONAL: 4.107
BRANCH_DIRECT_CALL: 0.01168
BRANCH_INDIRECT_CALL: 0.1355
BRANCH_RETURN: 0.01204

cpu0->cpu0_STLB TOTAL        ACCESS:    1177872 HIT:    1144603 MISS:      33269 MSHR_MERGE:          0
cpu0->cpu0_STLB LOAD         ACCESS:    1177872 HIT:    1144603 MISS:      33269 MSHR_MERGE:          0
cpu0->cpu0_STLB RFO          ACCESS:          0 HIT:          0 MISS:          0 MSHR_MERGE:          0
cpu0->cpu0_STLB PREFETCH     ACCESS:          0 HIT:          0 MISS:          0 MSHR_MERGE:          0
cpu0->cpu0_STLB WRITE        ACCESS:          0 HIT:          0 MISS:          0 MSHR_MERGE:          0
cpu0->cpu0_STLB TRANSLATION  ACCESS:          0 HIT:          0 MISS:          0 MSHR_MERGE:          0
cpu0->cpu0_STLB PREFETCH REQUESTED:          0 ISSUED:          0 USEFUL:          0 USELESS:          0
cpu0->cpu0_STLB AVERAGE MISS LATENCY: 177.1 cycles
cpu0->cpu0_L2C TOTAL        ACCESS:    5186399 HIT:    3930147 MISS:    1256252 MSHR_MERGE:     139066
cpu0->cpu0_L2C LOAD         ACCESS:    2637983 HIT:    2227544 MISS:     410439 MSHR_MERGE:        849
cpu0->cpu0_L2C RFO          ACCESS:      85461 HIT:      56479 MISS:      28982 MSHR_MERGE:          0
cpu0->cpu0_L2C PREFETCH     ACCESS:    2155523 HIT:    1363888 MISS:     791635 MSHR_MERGE:     138217
cpu0->cpu0_L2C WRITE        ACCESS:     272947 HIT:     271777 MISS:       1170 MSHR_MERGE:          0
cpu0->cpu0_L2C TRANSLATION  ACCESS:      34485 HIT:      10459 MISS:      24026 MSHR_MERGE:          0
cpu0->cpu0_L2C PREFETCH REQUESTED:    2155634 ISSUED:    2155523 USEFUL:       3378 USELESS:        403
cpu0->cpu0_L2C AVERAGE MISS LATENCY: 124.4 cycles
cpu0->cpu0_L1I TOTAL        ACCESS:   54785313 HIT:   52711175 MISS:    2074138 MSHR_MERGE:     423771
cpu0->cpu0_L1I LOAD         ACCESS:   54785313 HIT:   52711175 MISS:    2074138 MSHR_MERGE:     423771
cpu0->cpu0_L1I RFO          ACCESS:          0 HIT:          0 MISS:          0 MSHR_MERGE:          0
cpu0->cpu0_L1I PREFETCH     ACCESS:          0 HIT:          0 MISS:          0 MSHR_MERGE:          0
cpu0->cpu0_L1I WRITE        ACCESS:          0 HIT:          0 MISS:          0 MSHR_MERGE:          0
cpu0->cpu0_L1I TRANSLATION  ACCESS:          0 HIT:          0 MISS:          0 MSHR_MERGE:          0
cpu0->cpu0_L1I PREFETCH REQUESTED:          0 ISSUED:          0 USEFUL:          0 USELESS:          0
cpu0->cpu0_L1I AVERAGE MISS LATENCY: 9.366 cycles
cpu0->cpu0_L1D TOTAL        ACCESS:  329189269 HIT:  327640276 MISS:    1548993 MSHR_MERGE:     441426
cpu0->cpu0_L1D LOAD         ACCESS:  135714549 HIT:  134453509 MISS:    1261040 MSHR_MERGE:     273422
cpu0->cpu0_L1D RFO          ACCESS:          0 HIT:          0 MISS:          0 MSHR_MERGE:          0
cpu0->cpu0_L1D PREFETCH     ACCESS:          0 HIT:          0 MISS:          0 MSHR_MERGE:          0
cpu0->cpu0_L1D WRITE        ACCESS:  193436932 HIT:  193183469 MISS:     253463 MSHR_MERGE:     167999
cpu0->cpu0_L1D TRANSLATION  ACCESS:      37788 HIT:       3298 MISS:      34490 MSHR_MERGE:          5
cpu0->cpu0_L1D PREFETCH REQUESTED:          0 ISSUED:          0 USEFUL:          0 USELESS:          0
cpu0->cpu0_L1D AVERAGE MISS LATENCY: 57.31 cycles
cpu0->cpu0_ITLB TOTAL        ACCESS:   47669713 HIT:   47376378 MISS:     293335 MSHR_MERGE:     174849
cpu0->cpu0_ITLB LOAD         ACCESS:   47669713 HIT:   47376378 MISS:     293335 MSHR_MERGE:     174849
cpu0->cpu0_ITLB RFO          ACCESS:          0 HIT:          0 MISS:          0 MSHR_MERGE:          0
cpu0->cpu0_ITLB PREFETCH     ACCESS:          0 HIT:          0 MISS:          0 MSHR_MERGE:          0
cpu0->cpu0_ITLB WRITE        ACCESS:          0 HIT:          0 MISS:          0 MSHR_MERGE:          0
cpu0->cpu0_ITLB TRANSLATION  ACCESS:          0 HIT:          0 MISS:          0 MSHR_MERGE:          0
cpu0->cpu0_ITLB PREFETCH REQUESTED:          0 ISSUED:          0 USEFUL:          0 USELESS:          0
cpu0->cpu0_ITLB AVERAGE MISS LATENCY: 7.052 cycles
cpu0->cpu0_DTLB TOTAL        ACCESS:  296588089 HIT:  295245398 MISS:    1342691 MSHR_MERGE:     283305
cpu0->cpu0_DTLB LOAD         ACCESS:  296588089 HIT:  295245398 MISS:    1342691 MSHR_MERGE:     283305
cpu0->cpu0_DTLB RFO          ACCESS:          0 HIT:          0 MISS:          0 MSHR_MERGE:          0
cpu0->cpu0_DTLB PREFETCH     ACCESS:          0 HIT:          0 MISS:          0 MSHR_MERGE:          0
cpu0->cpu0_DTLB WRITE        ACCESS:          0 HIT:          0 MISS:          0 MSHR_MERGE:          0
cpu0->cpu0_DTLB TRANSLATION  ACCESS:          0 HIT:          0 MISS:          0 MSHR_MERGE:          0
cpu0->cpu0_DTLB PREFETCH REQUESTED:          0 ISSUED:          0 USEFUL:          0 USELESS:          0
cpu0->cpu0_DTLB AVERAGE MISS LATENCY: 10.36 cycles
cpu0->LLC TOTAL        ACCESS:    1209970 HIT:     734571 MISS:     475399 MSHR_MERGE:      18023
cpu0->LLC LOAD         ACCESS:     409590 HIT:     167755 MISS:     241835 MSHR_MERGE:      16576
cpu0->LLC RFO          ACCESS:      28982 HIT:       8968 MISS:      20014 MSHR_MERGE:        110
cpu0->LLC PREFETCH     ACCESS:     653416 HIT:     461605 MISS:     191811 MSHR_MERGE:       1337
cpu0->LLC WRITE        ACCESS:      93956 HIT:      92145 MISS:       1811 MSHR_MERGE:          0
cpu0->LLC TRANSLATION  ACCESS:      24026 HIT:       4098 MISS:      19928 MSHR_MERGE:          0
cpu0->LLC PREFETCH REQUESTED:          0 ISSUED:          0 USEFUL:          0 USELESS:          0
cpu0->LLC AVERAGE MISS LATENCY: 178.1 cycles

DRAM Statistics

Channel 0 RQ ROW_BUFFER_HIT:       7850
  ROW_BUFFER_MISS:     447708
  AVG DBUS CONGESTED CYCLE: 18.52
Channel 0 WQ ROW_BUFFER_HIT:      21654
  ROW_BUFFER_MISS:      44881
  FULL:          0
Channel 0 REFRESHES ISSUED:      44538
