[VMEM] WARNING: physical memory size is smaller than virtual memory size.
WARNING: option --warmup_instructions is deprecated. Use --warmup-instructions instead.
WARNING: option --simulation_instructions is deprecated. Use --simulation-instructions instead.

*** ChampSim Multicore Out-of-Order Simulator ***
Warmup Instructions: 200000000
Simulation Instructions: 1000000000
Number of CPUs: 1
Page size: 4096

Initialize SIGNATURE TABLE
ST_SET: 1
ST_WAY: 256
ST_TAG_BIT: 16

Initialize PATTERN TABLE
PT_SET: 512
PT_WAY: 4
SIG_DELTA_BIT: 7
C_SIG_BIT: 4
C_DELTA_BIT: 4

Initialize PREFETCH FILTER
FILTER_SET: 1024
Off-chip DRAM Size: 16 GiB Channels: 1 Width: 64-bit Data Rate: 3205 MT/s
Heartbeat CPU 0 instructions: 10000004 cycles: 2741559 heartbeat IPC: 3.648 cumulative IPC: 3.648 (Simulation time: 00 hr 00 min 54 sec)
Heartbeat CPU 0 instructions: 20000006 cycles: 5493315 heartbeat IPC: 3.634 cumulative IPC: 3.641 (Simulation time: 00 hr 01 min 50 sec)
Heartbeat CPU 0 instructions: 30000007 cycles: 8185640 heartbeat IPC: 3.714 cumulative IPC: 3.665 (Simulation time: 00 hr 02 min 44 sec)
Heartbeat CPU 0 instructions: 40000010 cycles: 10690781 heartbeat IPC: 3.992 cumulative IPC: 3.742 (Simulation time: 00 hr 03 min 38 sec)
Heartbeat CPU 0 instructions: 50000011 cycles: 13190781 heartbeat IPC: 4 cumulative IPC: 3.791 (Simulation time: 00 hr 04 min 31 sec)
Heartbeat CPU 0 instructions: 60000011 cycles: 15690921 heartbeat IPC: 4 cumulative IPC: 3.824 (Simulation time: 00 hr 05 min 24 sec)
Heartbeat CPU 0 instructions: 70000013 cycles: 18199641 heartbeat IPC: 3.986 cumulative IPC: 3.846 (Simulation time: 00 hr 06 min 16 sec)
Heartbeat CPU 0 instructions: 80000014 cycles: 20699786 heartbeat IPC: 4 cumulative IPC: 3.865 (Simulation time: 00 hr 07 min 09 sec)
Heartbeat CPU 0 instructions: 90000017 cycles: 23199799 heartbeat IPC: 4 cumulative IPC: 3.879 (Simulation time: 00 hr 08 min 02 sec)
Heartbeat CPU 0 instructions: 100000019 cycles: 25845619 heartbeat IPC: 3.78 cumulative IPC: 3.869 (Simulation time: 00 hr 08 min 57 sec)
Heartbeat CPU 0 instructions: 110000021 cycles: 28346044 heartbeat IPC: 3.999 cumulative IPC: 3.881 (Simulation time: 00 hr 09 min 49 sec)
Heartbeat CPU 0 instructions: 120000025 cycles: 30846045 heartbeat IPC: 4 cumulative IPC: 3.89 (Simulation time: 00 hr 10 min 42 sec)
Heartbeat CPU 0 instructions: 130000028 cycles: 33372635 heartbeat IPC: 3.958 cumulative IPC: 3.895 (Simulation time: 00 hr 11 min 35 sec)
Heartbeat CPU 0 instructions: 140000030 cycles: 35872907 heartbeat IPC: 4 cumulative IPC: 3.903 (Simulation time: 00 hr 12 min 27 sec)
Heartbeat CPU 0 instructions: 150000032 cycles: 38373054 heartbeat IPC: 4 cumulative IPC: 3.909 (Simulation time: 00 hr 13 min 21 sec)
Heartbeat CPU 0 instructions: 160000034 cycles: 40877831 heartbeat IPC: 3.992 cumulative IPC: 3.914 (Simulation time: 00 hr 14 min 13 sec)
Heartbeat CPU 0 instructions: 170000038 cycles: 43377832 heartbeat IPC: 4 cumulative IPC: 3.919 (Simulation time: 00 hr 15 min 06 sec)
Heartbeat CPU 0 instructions: 180000042 cycles: 45877969 heartbeat IPC: 4 cumulative IPC: 3.923 (Simulation time: 00 hr 15 min 59 sec)
Heartbeat CPU 0 instructions: 190000045 cycles: 48382112 heartbeat IPC: 3.993 cumulative IPC: 3.927 (Simulation time: 00 hr 16 min 52 sec)
Warmup finished CPU 0 instructions: 200000001 cycles: 50892307 cumulative IPC: 3.93 (Simulation time: 00 hr 17 min 45 sec)
Warmup complete CPU 0 instructions: 200000001 cycles: 50892307 cumulative IPC: 3.93 (Simulation time: 00 hr 17 min 45 sec)
Heartbeat CPU 0 instructions: 200000046 cycles: 50892316 heartbeat IPC: 3.984 cumulative IPC: 5 (Simulation time: 00 hr 17 min 45 sec)
Heartbeat CPU 0 instructions: 210000046 cycles: 55879586 heartbeat IPC: 2.005 cumulative IPC: 2.005 (Simulation time: 00 hr 19 min 14 sec)
Heartbeat CPU 0 instructions: 220000046 cycles: 61463343 heartbeat IPC: 1.791 cumulative IPC: 1.892 (Simulation time: 00 hr 20 min 46 sec)
Heartbeat CPU 0 instructions: 230000050 cycles: 66466733 heartbeat IPC: 1.999 cumulative IPC: 1.926 (Simulation time: 00 hr 22 min 14 sec)
Heartbeat CPU 0 instructions: 240000052 cycles: 71606077 heartbeat IPC: 1.946 cumulative IPC: 1.931 (Simulation time: 00 hr 23 min 43 sec)
Heartbeat CPU 0 instructions: 250000053 cycles: 77674289 heartbeat IPC: 1.648 cumulative IPC: 1.867 (Simulation time: 00 hr 25 min 17 sec)
Heartbeat CPU 0 instructions: 260000054 cycles: 82705371 heartbeat IPC: 1.988 cumulative IPC: 1.886 (Simulation time: 00 hr 26 min 45 sec)
Heartbeat CPU 0 instructions: 270000056 cycles: 88538634 heartbeat IPC: 1.714 cumulative IPC: 1.859 (Simulation time: 00 hr 28 min 18 sec)
Heartbeat CPU 0 instructions: 280000057 cycles: 93538782 heartbeat IPC: 2 cumulative IPC: 1.876 (Simulation time: 00 hr 29 min 47 sec)
Heartbeat CPU 0 instructions: 290000059 cycles: 98640205 heartbeat IPC: 1.96 cumulative IPC: 1.885 (Simulation time: 00 hr 31 min 15 sec)
Heartbeat CPU 0 instructions: 300000063 cycles: 104074794 heartbeat IPC: 1.84 cumulative IPC: 1.88 (Simulation time: 00 hr 32 min 46 sec)
Heartbeat CPU 0 instructions: 310000064 cycles: 109054067 heartbeat IPC: 2.008 cumulative IPC: 1.891 (Simulation time: 00 hr 34 min 14 sec)
Heartbeat CPU 0 instructions: 320000067 cycles: 114278463 heartbeat IPC: 1.914 cumulative IPC: 1.893 (Simulation time: 00 hr 35 min 43 sec)
Heartbeat CPU 0 instructions: 330000070 cycles: 119772299 heartbeat IPC: 1.82 cumulative IPC: 1.887 (Simulation time: 00 hr 37 min 15 sec)
Heartbeat CPU 0 instructions: 340000072 cycles: 124745335 heartbeat IPC: 2.011 cumulative IPC: 1.896 (Simulation time: 00 hr 38 min 42 sec)
Heartbeat CPU 0 instructions: 350000075 cycles: 129991619 heartbeat IPC: 1.906 cumulative IPC: 1.896 (Simulation time: 00 hr 40 min 12 sec)
Heartbeat CPU 0 instructions: 360000079 cycles: 135499143 heartbeat IPC: 1.816 cumulative IPC: 1.891 (Simulation time: 00 hr 41 min 43 sec)
Heartbeat CPU 0 instructions: 370000079 cycles: 140482858 heartbeat IPC: 2.007 cumulative IPC: 1.898 (Simulation time: 00 hr 43 min 11 sec)
Heartbeat CPU 0 instructions: 380000083 cycles: 145805750 heartbeat IPC: 1.879 cumulative IPC: 1.896 (Simulation time: 00 hr 44 min 41 sec)
Heartbeat CPU 0 instructions: 390000084 cycles: 151645080 heartbeat IPC: 1.713 cumulative IPC: 1.886 (Simulation time: 00 hr 46 min 14 sec)
Heartbeat CPU 0 instructions: 400000086 cycles: 156626478 heartbeat IPC: 2.007 cumulative IPC: 1.892 (Simulation time: 00 hr 47 min 42 sec)
Heartbeat CPU 0 instructions: 410000086 cycles: 161952927 heartbeat IPC: 1.877 cumulative IPC: 1.891 (Simulation time: 00 hr 49 min 12 sec)
Heartbeat CPU 0 instructions: 420000089 cycles: 169535110 heartbeat IPC: 1.319 cumulative IPC: 1.854 (Simulation time: 00 hr 50 min 55 sec)
Heartbeat CPU 0 instructions: 430000093 cycles: 174783894 heartbeat IPC: 1.905 cumulative IPC: 1.856 (Simulation time: 00 hr 52 min 25 sec)
Heartbeat CPU 0 instructions: 440000095 cycles: 180339484 heartbeat IPC: 1.8 cumulative IPC: 1.854 (Simulation time: 00 hr 53 min 56 sec)
Heartbeat CPU 0 instructions: 450000098 cycles: 186101992 heartbeat IPC: 1.735 cumulative IPC: 1.849 (Simulation time: 00 hr 55 min 30 sec)
Heartbeat CPU 0 instructions: 460000098 cycles: 191366544 heartbeat IPC: 1.899 cumulative IPC: 1.851 (Simulation time: 00 hr 56 min 59 sec)
Heartbeat CPU 0 instructions: 470000102 cycles: 197150597 heartbeat IPC: 1.729 cumulative IPC: 1.846 (Simulation time: 00 hr 58 min 32 sec)
Heartbeat CPU 0 instructions: 480000105 cycles: 203819165 heartbeat IPC: 1.5 cumulative IPC: 1.831 (Simulation time: 01 hr 00 min 14 sec)
Heartbeat CPU 0 instructions: 490000109 cycles: 209105012 heartbeat IPC: 1.892 cumulative IPC: 1.833 (Simulation time: 01 hr 01 min 44 sec)
Heartbeat CPU 0 instructions: 500000111 cycles: 214860914 heartbeat IPC: 1.737 cumulative IPC: 1.83 (Simulation time: 01 hr 03 min 17 sec)
Heartbeat CPU 0 instructions: 510000114 cycles: 219870050 heartbeat IPC: 1.996 cumulative IPC: 1.835 (Simulation time: 01 hr 04 min 45 sec)
Heartbeat CPU 0 instructions: 520000115 cycles: 225497435 heartbeat IPC: 1.777 cumulative IPC: 1.833 (Simulation time: 01 hr 06 min 17 sec)
Heartbeat CPU 0 instructions: 530000117 cycles: 230875701 heartbeat IPC: 1.859 cumulative IPC: 1.834 (Simulation time: 01 hr 07 min 48 sec)
Heartbeat CPU 0 instructions: 540000118 cycles: 235977859 heartbeat IPC: 1.96 cumulative IPC: 1.837 (Simulation time: 01 hr 09 min 18 sec)
Heartbeat CPU 0 instructions: 550000121 cycles: 241327042 heartbeat IPC: 1.869 cumulative IPC: 1.838 (Simulation time: 01 hr 10 min 50 sec)
Heartbeat CPU 0 instructions: 560000121 cycles: 249021358 heartbeat IPC: 1.3 cumulative IPC: 1.817 (Simulation time: 01 hr 12 min 34 sec)
Heartbeat CPU 0 instructions: 570000123 cycles: 254587764 heartbeat IPC: 1.796 cumulative IPC: 1.816 (Simulation time: 01 hr 14 min 07 sec)
Heartbeat CPU 0 instructions: 580000123 cycles: 260721835 heartbeat IPC: 1.63 cumulative IPC: 1.811 (Simulation time: 01 hr 15 min 42 sec)
Heartbeat CPU 0 instructions: 590000125 cycles: 265703213 heartbeat IPC: 2.007 cumulative IPC: 1.816 (Simulation time: 01 hr 17 min 10 sec)
Heartbeat CPU 0 instructions: 600000125 cycles: 270781383 heartbeat IPC: 1.969 cumulative IPC: 1.819 (Simulation time: 01 hr 18 min 38 sec)
Heartbeat CPU 0 instructions: 610000127 cycles: 276303378 heartbeat IPC: 1.811 cumulative IPC: 1.819 (Simulation time: 01 hr 20 min 09 sec)
Heartbeat CPU 0 instructions: 620000130 cycles: 281396125 heartbeat IPC: 1.964 cumulative IPC: 1.822 (Simulation time: 01 hr 21 min 38 sec)
Heartbeat CPU 0 instructions: 630000133 cycles: 286635315 heartbeat IPC: 1.909 cumulative IPC: 1.824 (Simulation time: 01 hr 23 min 08 sec)
Heartbeat CPU 0 instructions: 640000136 cycles: 292288605 heartbeat IPC: 1.769 cumulative IPC: 1.823 (Simulation time: 01 hr 24 min 41 sec)
Heartbeat CPU 0 instructions: 650000136 cycles: 297466158 heartbeat IPC: 1.931 cumulative IPC: 1.825 (Simulation time: 01 hr 26 min 11 sec)
Heartbeat CPU 0 instructions: 660000139 cycles: 302936248 heartbeat IPC: 1.828 cumulative IPC: 1.825 (Simulation time: 01 hr 27 min 42 sec)
Heartbeat CPU 0 instructions: 670000139 cycles: 308727185 heartbeat IPC: 1.727 cumulative IPC: 1.823 (Simulation time: 01 hr 29 min 15 sec)
Heartbeat CPU 0 instructions: 680000140 cycles: 313869068 heartbeat IPC: 1.945 cumulative IPC: 1.825 (Simulation time: 01 hr 30 min 45 sec)
Heartbeat CPU 0 instructions: 690000140 cycles: 319231146 heartbeat IPC: 1.865 cumulative IPC: 1.826 (Simulation time: 01 hr 32 min 15 sec)
Heartbeat CPU 0 instructions: 700000144 cycles: 324810592 heartbeat IPC: 1.792 cumulative IPC: 1.825 (Simulation time: 01 hr 33 min 47 sec)
Heartbeat CPU 0 instructions: 710000144 cycles: 329845749 heartbeat IPC: 1.986 cumulative IPC: 1.828 (Simulation time: 01 hr 35 min 16 sec)
Heartbeat CPU 0 instructions: 720000146 cycles: 335308982 heartbeat IPC: 1.83 cumulative IPC: 1.828 (Simulation time: 01 hr 36 min 47 sec)
Heartbeat CPU 0 instructions: 730000148 cycles: 341045598 heartbeat IPC: 1.743 cumulative IPC: 1.827 (Simulation time: 01 hr 38 min 21 sec)
Heartbeat CPU 0 instructions: 740000150 cycles: 346638508 heartbeat IPC: 1.788 cumulative IPC: 1.826 (Simulation time: 01 hr 39 min 54 sec)
Heartbeat CPU 0 instructions: 750000154 cycles: 352554252 heartbeat IPC: 1.69 cumulative IPC: 1.823 (Simulation time: 01 hr 41 min 28 sec)
Heartbeat CPU 0 instructions: 760000157 cycles: 362677064 heartbeat IPC: 0.9879 cumulative IPC: 1.796 (Simulation time: 01 hr 43 min 16 sec)
Heartbeat CPU 0 instructions: 770000158 cycles: 369867057 heartbeat IPC: 1.391 cumulative IPC: 1.787 (Simulation time: 01 hr 44 min 53 sec)
Heartbeat CPU 0 instructions: 780000159 cycles: 374872379 heartbeat IPC: 1.998 cumulative IPC: 1.79 (Simulation time: 01 hr 46 min 22 sec)
Heartbeat CPU 0 instructions: 790000163 cycles: 380309069 heartbeat IPC: 1.839 cumulative IPC: 1.791 (Simulation time: 01 hr 47 min 53 sec)
Heartbeat CPU 0 instructions: 800000165 cycles: 385499411 heartbeat IPC: 1.927 cumulative IPC: 1.793 (Simulation time: 01 hr 49 min 22 sec)
Heartbeat CPU 0 instructions: 810000166 cycles: 390541938 heartbeat IPC: 1.983 cumulative IPC: 1.796 (Simulation time: 01 hr 50 min 50 sec)
Heartbeat CPU 0 instructions: 820000166 cycles: 396279122 heartbeat IPC: 1.743 cumulative IPC: 1.795 (Simulation time: 01 hr 52 min 24 sec)
Heartbeat CPU 0 instructions: 830000170 cycles: 401823665 heartbeat IPC: 1.804 cumulative IPC: 1.795 (Simulation time: 01 hr 53 min 56 sec)
Heartbeat CPU 0 instructions: 840000170 cycles: 407427563 heartbeat IPC: 1.784 cumulative IPC: 1.795 (Simulation time: 01 hr 55 min 29 sec)
Heartbeat CPU 0 instructions: 850000173 cycles: 413306802 heartbeat IPC: 1.701 cumulative IPC: 1.794 (Simulation time: 01 hr 57 min 02 sec)
Heartbeat CPU 0 instructions: 860000175 cycles: 418288844 heartbeat IPC: 2.007 cumulative IPC: 1.796 (Simulation time: 01 hr 58 min 30 sec)
Heartbeat CPU 0 instructions: 870000175 cycles: 423487640 heartbeat IPC: 1.924 cumulative IPC: 1.798 (Simulation time: 01 hr 59 min 59 sec)
Heartbeat CPU 0 instructions: 880000179 cycles: 428921847 heartbeat IPC: 1.84 cumulative IPC: 1.799 (Simulation time: 02 hr 01 min 31 sec)
Heartbeat CPU 0 instructions: 890000181 cycles: 434024202 heartbeat IPC: 1.96 cumulative IPC: 1.801 (Simulation time: 02 hr 03 min 00 sec)
Heartbeat CPU 0 instructions: 900000184 cycles: 439588221 heartbeat IPC: 1.797 cumulative IPC: 1.801 (Simulation time: 02 hr 04 min 32 sec)
Heartbeat CPU 0 instructions: 910000185 cycles: 444935748 heartbeat IPC: 1.87 cumulative IPC: 1.802 (Simulation time: 02 hr 06 min 02 sec)
Heartbeat CPU 0 instructions: 920000185 cycles: 450022650 heartbeat IPC: 1.966 cumulative IPC: 1.804 (Simulation time: 02 hr 07 min 31 sec)
Heartbeat CPU 0 instructions: 930000185 cycles: 455719537 heartbeat IPC: 1.755 cumulative IPC: 1.803 (Simulation time: 02 hr 09 min 03 sec)
Heartbeat CPU 0 instructions: 940000187 cycles: 461085606 heartbeat IPC: 1.864 cumulative IPC: 1.804 (Simulation time: 02 hr 10 min 34 sec)
Heartbeat CPU 0 instructions: 950000187 cycles: 466212684 heartbeat IPC: 1.95 cumulative IPC: 1.806 (Simulation time: 02 hr 12 min 03 sec)
Heartbeat CPU 0 instructions: 960000191 cycles: 471820964 heartbeat IPC: 1.783 cumulative IPC: 1.806 (Simulation time: 02 hr 13 min 34 sec)
Heartbeat CPU 0 instructions: 970000193 cycles: 477176930 heartbeat IPC: 1.867 cumulative IPC: 1.806 (Simulation time: 02 hr 15 min 05 sec)
Heartbeat CPU 0 instructions: 980000196 cycles: 482279396 heartbeat IPC: 1.96 cumulative IPC: 1.808 (Simulation time: 02 hr 16 min 34 sec)
Heartbeat CPU 0 instructions: 990000197 cycles: 488039633 heartbeat IPC: 1.736 cumulative IPC: 1.807 (Simulation time: 02 hr 18 min 07 sec)
Heartbeat CPU 0 instructions: 1000000197 cycles: 493101994 heartbeat IPC: 1.975 cumulative IPC: 1.809 (Simulation time: 02 hr 19 min 37 sec)
Heartbeat CPU 0 instructions: 1010000198 cycles: 498138099 heartbeat IPC: 1.986 cumulative IPC: 1.811 (Simulation time: 02 hr 21 min 06 sec)
Heartbeat CPU 0 instructions: 1020000199 cycles: 503617781 heartbeat IPC: 1.825 cumulative IPC: 1.811 (Simulation time: 02 hr 22 min 37 sec)
Heartbeat CPU 0 instructions: 1030000203 cycles: 508646469 heartbeat IPC: 1.989 cumulative IPC: 1.813 (Simulation time: 02 hr 24 min 06 sec)
Heartbeat CPU 0 instructions: 1040000205 cycles: 513691594 heartbeat IPC: 1.982 cumulative IPC: 1.815 (Simulation time: 02 hr 25 min 34 sec)
Heartbeat CPU 0 instructions: 1050000208 cycles: 519218164 heartbeat IPC: 1.809 cumulative IPC: 1.815 (Simulation time: 02 hr 27 min 05 sec)
Heartbeat CPU 0 instructions: 1060000212 cycles: 524255816 heartbeat IPC: 1.985 cumulative IPC: 1.817 (Simulation time: 02 hr 28 min 34 sec)
Heartbeat CPU 0 instructions: 1070000212 cycles: 529339182 heartbeat IPC: 1.967 cumulative IPC: 1.818 (Simulation time: 02 hr 30 min 02 sec)
Heartbeat CPU 0 instructions: 1080000215 cycles: 535017165 heartbeat IPC: 1.761 cumulative IPC: 1.818 (Simulation time: 02 hr 31 min 35 sec)
Heartbeat CPU 0 instructions: 1090000217 cycles: 540053276 heartbeat IPC: 1.986 cumulative IPC: 1.819 (Simulation time: 02 hr 33 min 03 sec)
Heartbeat CPU 0 instructions: 1100000218 cycles: 545231627 heartbeat IPC: 1.931 cumulative IPC: 1.821 (Simulation time: 02 hr 34 min 33 sec)
Heartbeat CPU 0 instructions: 1110000221 cycles: 551084569 heartbeat IPC: 1.709 cumulative IPC: 1.819 (Simulation time: 02 hr 36 min 06 sec)
Heartbeat CPU 0 instructions: 1120000221 cycles: 556117405 heartbeat IPC: 1.987 cumulative IPC: 1.821 (Simulation time: 02 hr 37 min 35 sec)
Heartbeat CPU 0 instructions: 1130000223 cycles: 561361681 heartbeat IPC: 1.907 cumulative IPC: 1.822 (Simulation time: 02 hr 39 min 04 sec)
Heartbeat CPU 0 instructions: 1140000226 cycles: 566969444 heartbeat IPC: 1.783 cumulative IPC: 1.821 (Simulation time: 02 hr 40 min 36 sec)
Heartbeat CPU 0 instructions: 1150000227 cycles: 572018548 heartbeat IPC: 1.981 cumulative IPC: 1.823 (Simulation time: 02 hr 42 min 05 sec)
Heartbeat CPU 0 instructions: 1160000229 cycles: 577293188 heartbeat IPC: 1.896 cumulative IPC: 1.824 (Simulation time: 02 hr 43 min 35 sec)
Heartbeat CPU 0 instructions: 1170000230 cycles: 582812571 heartbeat IPC: 1.812 cumulative IPC: 1.824 (Simulation time: 02 hr 45 min 07 sec)
Heartbeat CPU 0 instructions: 1180000232 cycles: 587804602 heartbeat IPC: 2.003 cumulative IPC: 1.825 (Simulation time: 02 hr 46 min 35 sec)
Heartbeat CPU 0 instructions: 1190000234 cycles: 593113636 heartbeat IPC: 1.884 cumulative IPC: 1.826 (Simulation time: 02 hr 48 min 05 sec)
Simulation finished CPU 0 instructions: 1000000003 cycles: 547741445 cumulative IPC: 1.826 (Simulation time: 02 hr 49 min 37 sec)
Simulation complete CPU 0 instructions: 1000000003 cycles: 547741445 cumulative IPC: 1.826 (Simulation time: 02 hr 49 min 37 sec)

ChampSim completed all CPUs

=== Simulation ===
CPU 0 runs /home/grads/b/bhavishya_k_s/ecen676/ChampSim/dpc3_traces/602.gcc_s-734B.champsimtrace.xz

Region of Interest Statistics

CPU 0 cumulative IPC: 1.826 instructions: 1000000003 cycles: 547741445
CPU 0 Branch Prediction Accuracy: 99.76% MPKI: 0.5706 Average ROB Occupancy at Mispredict: 41.09
Branch type MPKI
BRANCH_DIRECT_JUMP: 0.104
BRANCH_INDIRECT: 0
BRANCH_CONDITIONAL: 0.3916
BRANCH_DIRECT_CALL: 0.075
BRANCH_INDIRECT_CALL: 2e-06
BRANCH_RETURN: 1e-06

cpu0->cpu0_STLB TOTAL        ACCESS:     444306 HIT:     226210 MISS:     218096 MSHR_MERGE:          0
cpu0->cpu0_STLB LOAD         ACCESS:     444306 HIT:     226210 MISS:     218096 MSHR_MERGE:          0
cpu0->cpu0_STLB RFO          ACCESS:          0 HIT:          0 MISS:          0 MSHR_MERGE:          0
cpu0->cpu0_STLB PREFETCH     ACCESS:          0 HIT:          0 MISS:          0 MSHR_MERGE:          0
cpu0->cpu0_STLB WRITE        ACCESS:          0 HIT:          0 MISS:          0 MSHR_MERGE:          0
cpu0->cpu0_STLB TRANSLATION  ACCESS:          0 HIT:          0 MISS:          0 MSHR_MERGE:          0
cpu0->cpu0_STLB PREFETCH REQUESTED:          0 ISSUED:          0 USEFUL:          0 USELESS:          0
cpu0->cpu0_STLB AVERAGE MISS LATENCY: 116.4 cycles
cpu0->cpu0_L2C TOTAL        ACCESS:  200355092 HIT:   88553837 MISS:  111801255 MSHR_MERGE:     247469
cpu0->cpu0_L2C LOAD         ACCESS:   16489811 HIT:   13288009 MISS:    3201802 MSHR_MERGE:      99049
cpu0->cpu0_L2C RFO          ACCESS:      43190 HIT:      35592 MISS:       7598 MSHR_MERGE:          5
cpu0->cpu0_L2C PREFETCH     ACCESS:  183503049 HIT:   75017629 MISS:  108485420 MSHR_MERGE:     148415
cpu0->cpu0_L2C WRITE        ACCESS:     200566 HIT:     200545 MISS:         21 MSHR_MERGE:          0
cpu0->cpu0_L2C TRANSLATION  ACCESS:     118476 HIT:      12062 MISS:     106414 MSHR_MERGE:          0
cpu0->cpu0_L2C PREFETCH REQUESTED:  234189972 ISSUED:  183503055 USEFUL:    5143738 USELESS:      35095
cpu0->cpu0_L2C AVERAGE MISS LATENCY: 48.37 cycles
cpu0->cpu0_L1I TOTAL        ACCESS:  208747724 HIT:  208747723 MISS:          1 MSHR_MERGE:          0
cpu0->cpu0_L1I LOAD         ACCESS:  208747724 HIT:  208747723 MISS:          1 MSHR_MERGE:          0
cpu0->cpu0_L1I RFO          ACCESS:          0 HIT:          0 MISS:          0 MSHR_MERGE:          0
cpu0->cpu0_L1I PREFETCH     ACCESS:          0 HIT:          0 MISS:          0 MSHR_MERGE:          0
cpu0->cpu0_L1I WRITE        ACCESS:          0 HIT:          0 MISS:          0 MSHR_MERGE:          0
cpu0->cpu0_L1I TRANSLATION  ACCESS:          0 HIT:          0 MISS:          0 MSHR_MERGE:          0
cpu0->cpu0_L1I PREFETCH REQUESTED:          0 ISSUED:          0 USEFUL:          0 USELESS:          0
cpu0->cpu0_L1I AVERAGE MISS LATENCY: 224 cycles
cpu0->cpu0_L1D TOTAL        ACCESS:  247355178 HIT:  213948591 MISS:   33406587 MSHR_MERGE:   16752922
cpu0->cpu0_L1D LOAD         ACCESS:  147014095 HIT:  113910333 MISS:   33103762 MSHR_MERGE:   16613952
cpu0->cpu0_L1D RFO          ACCESS:          0 HIT:          0 MISS:          0 MSHR_MERGE:          0
cpu0->cpu0_L1D PREFETCH     ACCESS:          0 HIT:          0 MISS:          0 MSHR_MERGE:          0
cpu0->cpu0_L1D WRITE        ACCESS:  100105855 HIT:   99921515 MISS:     184340 MSHR_MERGE:     138961
cpu0->cpu0_L1D TRANSLATION  ACCESS:     235228 HIT:     116743 MISS:     118485 MSHR_MERGE:          9
cpu0->cpu0_L1D PREFETCH REQUESTED:          0 ISSUED:          0 USEFUL:          0 USELESS:          0
cpu0->cpu0_L1D AVERAGE MISS LATENCY: 17.84 cycles
cpu0->cpu0_ITLB TOTAL        ACCESS:  174659628 HIT:  174659628 MISS:          0 MSHR_MERGE:          0
cpu0->cpu0_ITLB LOAD         ACCESS:  174659628 HIT:  174659628 MISS:          0 MSHR_MERGE:          0
cpu0->cpu0_ITLB RFO          ACCESS:          0 HIT:          0 MISS:          0 MSHR_MERGE:          0
cpu0->cpu0_ITLB PREFETCH     ACCESS:          0 HIT:          0 MISS:          0 MSHR_MERGE:          0
cpu0->cpu0_ITLB WRITE        ACCESS:          0 HIT:          0 MISS:          0 MSHR_MERGE:          0
cpu0->cpu0_ITLB TRANSLATION  ACCESS:          0 HIT:          0 MISS:          0 MSHR_MERGE:          0
cpu0->cpu0_ITLB PREFETCH REQUESTED:          0 ISSUED:          0 USEFUL:          0 USELESS:          0
cpu0->cpu0_ITLB AVERAGE MISS LATENCY: - cycles
cpu0->cpu0_DTLB TOTAL        ACCESS:  224912614 HIT:  224159881 MISS:     752733 MSHR_MERGE:     308427
cpu0->cpu0_DTLB LOAD         ACCESS:  224912614 HIT:  224159881 MISS:     752733 MSHR_MERGE:     308427
cpu0->cpu0_DTLB RFO          ACCESS:          0 HIT:          0 MISS:          0 MSHR_MERGE:          0
cpu0->cpu0_DTLB PREFETCH     ACCESS:          0 HIT:          0 MISS:          0 MSHR_MERGE:          0
cpu0->cpu0_DTLB WRITE        ACCESS:          0 HIT:          0 MISS:          0 MSHR_MERGE:          0
cpu0->cpu0_DTLB TRANSLATION  ACCESS:          0 HIT:          0 MISS:          0 MSHR_MERGE:          0
cpu0->cpu0_DTLB PREFETCH REQUESTED:          0 ISSUED:          0 USEFUL:          0 USELESS:          0
cpu0->cpu0_DTLB AVERAGE MISS LATENCY: 62.61 cycles
cpu0->LLC TOTAL        ACCESS:  111627148 HIT:   68252587 MISS:   43374561 MSHR_MERGE:   34424662
cpu0->LLC LOAD         ACCESS:    3102753 HIT:    2653249 MISS:     449504 MSHR_MERGE:      69998
cpu0->LLC RFO          ACCESS:       7593 HIT:       1048 MISS:       6545 MSHR_MERGE:         52
cpu0->LLC PREFETCH     ACCESS:  108330889 HIT:   65528241 MISS:   42802648 MSHR_MERGE:   34354612
cpu0->LLC WRITE        ACCESS:      79499 HIT:      61400 MISS:      18099 MSHR_MERGE:          0
cpu0->LLC TRANSLATION  ACCESS:     106414 HIT:       8649 MISS:      97765 MSHR_MERGE:          0
cpu0->LLC PREFETCH REQUESTED:          0 ISSUED:          0 USEFUL:          0 USELESS:          0
cpu0->LLC AVERAGE MISS LATENCY: 181.4 cycles

DRAM Statistics

Channel 0 RQ ROW_BUFFER_HIT:    2961428
  ROW_BUFFER_MISS:    5970357
  AVG DBUS CONGESTED CYCLE: 7.055
Channel 0 WQ ROW_BUFFER_HIT:      26437
  ROW_BUFFER_MISS:      52266
  FULL:          0
Channel 0 REFRESHES ISSUED:      45645
