[VMEM] WARNING: physical memory size is smaller than virtual memory size.
WARNING: option --warmup_instructions is deprecated. Use --warmup-instructions instead.
WARNING: option --simulation_instructions is deprecated. Use --simulation-instructions instead.

*** ChampSim Multicore Out-of-Order Simulator ***
Warmup Instructions: 200000000
Simulation Instructions: 1000000000
Number of CPUs: 1
Page size: 4096

Initialize SIGNATURE TABLE
ST_SET: 1
ST_WAY: 256
ST_TAG_BIT: 16

Initialize PATTERN TABLE
PT_SET: 512
PT_WAY: 4
SIG_DELTA_BIT: 7
C_SIG_BIT: 4
C_DELTA_BIT: 4

Initialize PREFETCH FILTER
FILTER_SET: 1024
Off-chip DRAM Size: 16 GiB Channels: 1 Width: 64-bit Data Rate: 3205 MT/s
Heartbeat CPU 0 instructions: 10000003 cycles: 3110233 heartbeat IPC: 3.215 cumulative IPC: 3.215 (Simulation time: 00 hr 01 min 04 sec)
Heartbeat CPU 0 instructions: 20000003 cycles: 6192545 heartbeat IPC: 3.244 cumulative IPC: 3.23 (Simulation time: 00 hr 02 min 08 sec)
Heartbeat CPU 0 instructions: 30000004 cycles: 9268055 heartbeat IPC: 3.251 cumulative IPC: 3.237 (Simulation time: 00 hr 03 min 11 sec)
Heartbeat CPU 0 instructions: 40000008 cycles: 12364371 heartbeat IPC: 3.23 cumulative IPC: 3.235 (Simulation time: 00 hr 04 min 16 sec)
Heartbeat CPU 0 instructions: 50000012 cycles: 15460505 heartbeat IPC: 3.23 cumulative IPC: 3.234 (Simulation time: 00 hr 05 min 20 sec)
Heartbeat CPU 0 instructions: 60000015 cycles: 18571865 heartbeat IPC: 3.214 cumulative IPC: 3.231 (Simulation time: 00 hr 06 min 24 sec)
Heartbeat CPU 0 instructions: 70000017 cycles: 21675283 heartbeat IPC: 3.222 cumulative IPC: 3.229 (Simulation time: 00 hr 07 min 28 sec)
Heartbeat CPU 0 instructions: 80000021 cycles: 24762174 heartbeat IPC: 3.24 cumulative IPC: 3.231 (Simulation time: 00 hr 08 min 32 sec)
Heartbeat CPU 0 instructions: 90000025 cycles: 27862283 heartbeat IPC: 3.226 cumulative IPC: 3.23 (Simulation time: 00 hr 09 min 37 sec)
Heartbeat CPU 0 instructions: 100000029 cycles: 30953222 heartbeat IPC: 3.235 cumulative IPC: 3.231 (Simulation time: 00 hr 10 min 41 sec)
Heartbeat CPU 0 instructions: 110000033 cycles: 34059216 heartbeat IPC: 3.22 cumulative IPC: 3.23 (Simulation time: 00 hr 11 min 45 sec)
Heartbeat CPU 0 instructions: 120000034 cycles: 37175533 heartbeat IPC: 3.209 cumulative IPC: 3.228 (Simulation time: 00 hr 12 min 49 sec)
Heartbeat CPU 0 instructions: 130000038 cycles: 40262297 heartbeat IPC: 3.24 cumulative IPC: 3.229 (Simulation time: 00 hr 13 min 53 sec)
Heartbeat CPU 0 instructions: 140000038 cycles: 43357996 heartbeat IPC: 3.23 cumulative IPC: 3.229 (Simulation time: 00 hr 14 min 57 sec)
Heartbeat CPU 0 instructions: 150000040 cycles: 46470515 heartbeat IPC: 3.213 cumulative IPC: 3.228 (Simulation time: 00 hr 16 min 01 sec)
Heartbeat CPU 0 instructions: 160000042 cycles: 49597759 heartbeat IPC: 3.198 cumulative IPC: 3.226 (Simulation time: 00 hr 17 min 06 sec)
Heartbeat CPU 0 instructions: 170000046 cycles: 52712176 heartbeat IPC: 3.211 cumulative IPC: 3.225 (Simulation time: 00 hr 18 min 10 sec)
Heartbeat CPU 0 instructions: 180000047 cycles: 55826875 heartbeat IPC: 3.211 cumulative IPC: 3.224 (Simulation time: 00 hr 19 min 15 sec)
Heartbeat CPU 0 instructions: 190000048 cycles: 58947067 heartbeat IPC: 3.205 cumulative IPC: 3.223 (Simulation time: 00 hr 20 min 19 sec)
Warmup finished CPU 0 instructions: 200000001 cycles: 62059426 cumulative IPC: 3.223 (Simulation time: 00 hr 21 min 23 sec)
Warmup complete CPU 0 instructions: 200000001 cycles: 62059426 cumulative IPC: 3.223 (Simulation time: 00 hr 21 min 23 sec)
Heartbeat CPU 0 instructions: 200000051 cycles: 62059445 heartbeat IPC: 3.213 cumulative IPC: 2.632 (Simulation time: 00 hr 21 min 23 sec)
Heartbeat CPU 0 instructions: 210000054 cycles: 81646452 heartbeat IPC: 0.5105 cumulative IPC: 0.5105 (Simulation time: 00 hr 27 min 36 sec)
Heartbeat CPU 0 instructions: 220000057 cycles: 101195095 heartbeat IPC: 0.5115 cumulative IPC: 0.511 (Simulation time: 00 hr 33 min 48 sec)
Heartbeat CPU 0 instructions: 230000061 cycles: 120486747 heartbeat IPC: 0.5184 cumulative IPC: 0.5135 (Simulation time: 00 hr 39 min 54 sec)
Heartbeat CPU 0 instructions: 240000064 cycles: 139869282 heartbeat IPC: 0.5159 cumulative IPC: 0.5141 (Simulation time: 00 hr 46 min 04 sec)
Heartbeat CPU 0 instructions: 250000064 cycles: 158772850 heartbeat IPC: 0.529 cumulative IPC: 0.517 (Simulation time: 00 hr 52 min 03 sec)
Heartbeat CPU 0 instructions: 260000064 cycles: 177718385 heartbeat IPC: 0.5278 cumulative IPC: 0.5188 (Simulation time: 00 hr 58 min 02 sec)
Heartbeat CPU 0 instructions: 270000068 cycles: 196601398 heartbeat IPC: 0.5296 cumulative IPC: 0.5203 (Simulation time: 01 hr 03 min 58 sec)
Heartbeat CPU 0 instructions: 280000068 cycles: 215181548 heartbeat IPC: 0.5382 cumulative IPC: 0.5225 (Simulation time: 01 hr 09 min 51 sec)
Heartbeat CPU 0 instructions: 290000068 cycles: 234057470 heartbeat IPC: 0.5298 cumulative IPC: 0.5233 (Simulation time: 01 hr 15 min 49 sec)
Heartbeat CPU 0 instructions: 300000071 cycles: 253200105 heartbeat IPC: 0.5224 cumulative IPC: 0.5232 (Simulation time: 01 hr 21 min 51 sec)
Heartbeat CPU 0 instructions: 310000071 cycles: 272258768 heartbeat IPC: 0.5247 cumulative IPC: 0.5233 (Simulation time: 01 hr 27 min 52 sec)
Heartbeat CPU 0 instructions: 320000073 cycles: 291271179 heartbeat IPC: 0.526 cumulative IPC: 0.5235 (Simulation time: 01 hr 33 min 52 sec)
Heartbeat CPU 0 instructions: 330000074 cycles: 310113860 heartbeat IPC: 0.5307 cumulative IPC: 0.5241 (Simulation time: 01 hr 39 min 47 sec)
Heartbeat CPU 0 instructions: 340000075 cycles: 328646832 heartbeat IPC: 0.5396 cumulative IPC: 0.5252 (Simulation time: 01 hr 45 min 39 sec)
Heartbeat CPU 0 instructions: 350000077 cycles: 346963537 heartbeat IPC: 0.5459 cumulative IPC: 0.5265 (Simulation time: 01 hr 51 min 26 sec)
Heartbeat CPU 0 instructions: 360000077 cycles: 365780153 heartbeat IPC: 0.5314 cumulative IPC: 0.5268 (Simulation time: 01 hr 57 min 21 sec)
Heartbeat CPU 0 instructions: 370000079 cycles: 384153392 heartbeat IPC: 0.5443 cumulative IPC: 0.5278 (Simulation time: 02 hr 03 min 09 sec)
Heartbeat CPU 0 instructions: 380000081 cycles: 402715779 heartbeat IPC: 0.5387 cumulative IPC: 0.5284 (Simulation time: 02 hr 08 min 59 sec)
Heartbeat CPU 0 instructions: 390000083 cycles: 421316374 heartbeat IPC: 0.5376 cumulative IPC: 0.5289 (Simulation time: 02 hr 14 min 50 sec)
Heartbeat CPU 0 instructions: 400000083 cycles: 439523424 heartbeat IPC: 0.5492 cumulative IPC: 0.5299 (Simulation time: 02 hr 20 min 37 sec)
Heartbeat CPU 0 instructions: 410000083 cycles: 458142259 heartbeat IPC: 0.5371 cumulative IPC: 0.5302 (Simulation time: 02 hr 26 min 29 sec)
Heartbeat CPU 0 instructions: 420000083 cycles: 476794934 heartbeat IPC: 0.5361 cumulative IPC: 0.5305 (Simulation time: 02 hr 32 min 21 sec)
Heartbeat CPU 0 instructions: 430000084 cycles: 495999378 heartbeat IPC: 0.5207 cumulative IPC: 0.53 (Simulation time: 02 hr 38 min 24 sec)
Heartbeat CPU 0 instructions: 440000084 cycles: 515011268 heartbeat IPC: 0.526 cumulative IPC: 0.5299 (Simulation time: 02 hr 44 min 23 sec)
Heartbeat CPU 0 instructions: 450000085 cycles: 533509200 heartbeat IPC: 0.5406 cumulative IPC: 0.5303 (Simulation time: 02 hr 50 min 13 sec)
Heartbeat CPU 0 instructions: 460000085 cycles: 551302930 heartbeat IPC: 0.562 cumulative IPC: 0.5314 (Simulation time: 02 hr 55 min 51 sec)
Heartbeat CPU 0 instructions: 470000089 cycles: 569026332 heartbeat IPC: 0.5642 cumulative IPC: 0.5326 (Simulation time: 03 hr 01 min 28 sec)
Heartbeat CPU 0 instructions: 480000089 cycles: 586118101 heartbeat IPC: 0.5851 cumulative IPC: 0.5343 (Simulation time: 03 hr 06 min 53 sec)
Heartbeat CPU 0 instructions: 490000091 cycles: 602238464 heartbeat IPC: 0.6203 cumulative IPC: 0.5369 (Simulation time: 03 hr 12 min 01 sec)
Heartbeat CPU 0 instructions: 500000091 cycles: 617565944 heartbeat IPC: 0.6524 cumulative IPC: 0.54 (Simulation time: 03 hr 16 min 56 sec)
Heartbeat CPU 0 instructions: 510000093 cycles: 632353749 heartbeat IPC: 0.6762 cumulative IPC: 0.5436 (Simulation time: 03 hr 21 min 39 sec)
Heartbeat CPU 0 instructions: 520000095 cycles: 646223912 heartbeat IPC: 0.721 cumulative IPC: 0.5478 (Simulation time: 03 hr 26 min 02 sec)
Heartbeat CPU 0 instructions: 530000095 cycles: 659345900 heartbeat IPC: 0.7621 cumulative IPC: 0.5525 (Simulation time: 03 hr 30 min 09 sec)
Heartbeat CPU 0 instructions: 540000098 cycles: 672021168 heartbeat IPC: 0.7889 cumulative IPC: 0.5574 (Simulation time: 03 hr 34 min 08 sec)
Heartbeat CPU 0 instructions: 550000098 cycles: 683900522 heartbeat IPC: 0.8418 cumulative IPC: 0.5628 (Simulation time: 03 hr 37 min 54 sec)
Heartbeat CPU 0 instructions: 560000100 cycles: 695754147 heartbeat IPC: 0.8436 cumulative IPC: 0.5681 (Simulation time: 03 hr 41 min 38 sec)
Heartbeat CPU 0 instructions: 570000100 cycles: 706850484 heartbeat IPC: 0.9012 cumulative IPC: 0.5738 (Simulation time: 03 hr 45 min 11 sec)
Heartbeat CPU 0 instructions: 580000100 cycles: 717865297 heartbeat IPC: 0.9079 cumulative IPC: 0.5794 (Simulation time: 03 hr 48 min 42 sec)
Heartbeat CPU 0 instructions: 590000102 cycles: 728392221 heartbeat IPC: 0.9499 cumulative IPC: 0.5853 (Simulation time: 03 hr 52 min 04 sec)
Heartbeat CPU 0 instructions: 600000105 cycles: 738602992 heartbeat IPC: 0.9794 cumulative IPC: 0.5912 (Simulation time: 03 hr 55 min 20 sec)
Heartbeat CPU 0 instructions: 610000107 cycles: 748371250 heartbeat IPC: 1.024 cumulative IPC: 0.5974 (Simulation time: 03 hr 58 min 29 sec)
Heartbeat CPU 0 instructions: 620000110 cycles: 758232216 heartbeat IPC: 1.014 cumulative IPC: 0.6033 (Simulation time: 04 hr 01 min 42 sec)
Heartbeat CPU 0 instructions: 630000110 cycles: 767932217 heartbeat IPC: 1.031 cumulative IPC: 0.6092 (Simulation time: 04 hr 04 min 50 sec)
Heartbeat CPU 0 instructions: 640000114 cycles: 777362880 heartbeat IPC: 1.06 cumulative IPC: 0.6151 (Simulation time: 04 hr 07 min 54 sec)
Heartbeat CPU 0 instructions: 650000116 cycles: 786769813 heartbeat IPC: 1.063 cumulative IPC: 0.6209 (Simulation time: 04 hr 10 min 56 sec)
Heartbeat CPU 0 instructions: 660000117 cycles: 795851363 heartbeat IPC: 1.101 cumulative IPC: 0.6269 (Simulation time: 04 hr 13 min 53 sec)
Heartbeat CPU 0 instructions: 670000121 cycles: 805050234 heartbeat IPC: 1.087 cumulative IPC: 0.6326 (Simulation time: 04 hr 16 min 52 sec)
Heartbeat CPU 0 instructions: 680000121 cycles: 814099800 heartbeat IPC: 1.105 cumulative IPC: 0.6383 (Simulation time: 04 hr 19 min 49 sec)
Heartbeat CPU 0 instructions: 690000122 cycles: 823183210 heartbeat IPC: 1.101 cumulative IPC: 0.6438 (Simulation time: 04 hr 22 min 45 sec)
Heartbeat CPU 0 instructions: 700000123 cycles: 832277792 heartbeat IPC: 1.1 cumulative IPC: 0.6492 (Simulation time: 04 hr 25 min 41 sec)
Heartbeat CPU 0 instructions: 710000126 cycles: 841285837 heartbeat IPC: 1.11 cumulative IPC: 0.6545 (Simulation time: 04 hr 28 min 38 sec)
Heartbeat CPU 0 instructions: 720000129 cycles: 850130908 heartbeat IPC: 1.131 cumulative IPC: 0.6598 (Simulation time: 04 hr 31 min 33 sec)
Heartbeat CPU 0 instructions: 730000129 cycles: 859057412 heartbeat IPC: 1.12 cumulative IPC: 0.665 (Simulation time: 04 hr 34 min 29 sec)
Heartbeat CPU 0 instructions: 740000132 cycles: 867872224 heartbeat IPC: 1.134 cumulative IPC: 0.6701 (Simulation time: 04 hr 37 min 27 sec)
Heartbeat CPU 0 instructions: 750000133 cycles: 876734802 heartbeat IPC: 1.128 cumulative IPC: 0.6751 (Simulation time: 04 hr 40 min 23 sec)
Heartbeat CPU 0 instructions: 760000136 cycles: 885502580 heartbeat IPC: 1.141 cumulative IPC: 0.6801 (Simulation time: 04 hr 43 min 14 sec)
Heartbeat CPU 0 instructions: 770000140 cycles: 894343445 heartbeat IPC: 1.131 cumulative IPC: 0.6849 (Simulation time: 04 hr 46 min 08 sec)
Heartbeat CPU 0 instructions: 780000142 cycles: 903053256 heartbeat IPC: 1.148 cumulative IPC: 0.6897 (Simulation time: 04 hr 49 min 00 sec)
Heartbeat CPU 0 instructions: 790000142 cycles: 911857734 heartbeat IPC: 1.136 cumulative IPC: 0.6943 (Simulation time: 04 hr 51 min 53 sec)
Heartbeat CPU 0 instructions: 800000144 cycles: 920538076 heartbeat IPC: 1.152 cumulative IPC: 0.6989 (Simulation time: 04 hr 54 min 46 sec)
Heartbeat CPU 0 instructions: 810000145 cycles: 929365713 heartbeat IPC: 1.133 cumulative IPC: 0.7033 (Simulation time: 04 hr 57 min 45 sec)
Heartbeat CPU 0 instructions: 820000147 cycles: 938170653 heartbeat IPC: 1.136 cumulative IPC: 0.7077 (Simulation time: 05 hr 00 min 41 sec)
Heartbeat CPU 0 instructions: 830000147 cycles: 946870257 heartbeat IPC: 1.149 cumulative IPC: 0.712 (Simulation time: 05 hr 03 min 32 sec)
Heartbeat CPU 0 instructions: 840000150 cycles: 955698412 heartbeat IPC: 1.133 cumulative IPC: 0.7162 (Simulation time: 05 hr 06 min 28 sec)
Heartbeat CPU 0 instructions: 850000151 cycles: 964368130 heartbeat IPC: 1.153 cumulative IPC: 0.7204 (Simulation time: 05 hr 09 min 19 sec)
Heartbeat CPU 0 instructions: 860000153 cycles: 973201916 heartbeat IPC: 1.132 cumulative IPC: 0.7244 (Simulation time: 05 hr 12 min 12 sec)
Heartbeat CPU 0 instructions: 870000155 cycles: 981865316 heartbeat IPC: 1.154 cumulative IPC: 0.7284 (Simulation time: 05 hr 15 min 03 sec)
Heartbeat CPU 0 instructions: 880000159 cycles: 990698797 heartbeat IPC: 1.132 cumulative IPC: 0.7323 (Simulation time: 05 hr 17 min 57 sec)
Heartbeat CPU 0 instructions: 890000161 cycles: 999379882 heartbeat IPC: 1.152 cumulative IPC: 0.7361 (Simulation time: 05 hr 20 min 47 sec)
Heartbeat CPU 0 instructions: 900000163 cycles: 1008191431 heartbeat IPC: 1.135 cumulative IPC: 0.7399 (Simulation time: 05 hr 23 min 41 sec)
Heartbeat CPU 0 instructions: 910000163 cycles: 1016874821 heartbeat IPC: 1.152 cumulative IPC: 0.7436 (Simulation time: 05 hr 26 min 31 sec)
Heartbeat CPU 0 instructions: 920000166 cycles: 1025682660 heartbeat IPC: 1.135 cumulative IPC: 0.7472 (Simulation time: 05 hr 29 min 24 sec)
Heartbeat CPU 0 instructions: 930000168 cycles: 1034358401 heartbeat IPC: 1.153 cumulative IPC: 0.7508 (Simulation time: 05 hr 32 min 15 sec)
Heartbeat CPU 0 instructions: 940000170 cycles: 1043599909 heartbeat IPC: 1.082 cumulative IPC: 0.7539 (Simulation time: 05 hr 35 min 14 sec)
Heartbeat CPU 0 instructions: 950000170 cycles: 1069655167 heartbeat IPC: 0.3838 cumulative IPC: 0.7443 (Simulation time: 05 hr 43 min 17 sec)
Heartbeat CPU 0 instructions: 960000172 cycles: 1090177279 heartbeat IPC: 0.4873 cumulative IPC: 0.7392 (Simulation time: 05 hr 49 min 23 sec)
Heartbeat CPU 0 instructions: 970000176 cycles: 1099391194 heartbeat IPC: 1.085 cumulative IPC: 0.7423 (Simulation time: 05 hr 52 min 22 sec)
Heartbeat CPU 0 instructions: 980000178 cycles: 1108077311 heartbeat IPC: 1.151 cumulative IPC: 0.7457 (Simulation time: 05 hr 55 min 12 sec)
Heartbeat CPU 0 instructions: 990000182 cycles: 1116888737 heartbeat IPC: 1.135 cumulative IPC: 0.7489 (Simulation time: 05 hr 58 min 04 sec)
Heartbeat CPU 0 instructions: 1000000186 cycles: 1125565597 heartbeat IPC: 1.152 cumulative IPC: 0.7522 (Simulation time: 06 hr 00 min 53 sec)
Heartbeat CPU 0 instructions: 1010000187 cycles: 1134388163 heartbeat IPC: 1.133 cumulative IPC: 0.7554 (Simulation time: 06 hr 03 min 36 sec)
Heartbeat CPU 0 instructions: 1020000189 cycles: 1143037423 heartbeat IPC: 1.156 cumulative IPC: 0.7586 (Simulation time: 06 hr 06 min 18 sec)
Heartbeat CPU 0 instructions: 1030000190 cycles: 1151861071 heartbeat IPC: 1.133 cumulative IPC: 0.7616 (Simulation time: 06 hr 09 min 02 sec)
Heartbeat CPU 0 instructions: 1040000192 cycles: 1160547840 heartbeat IPC: 1.151 cumulative IPC: 0.7647 (Simulation time: 06 hr 11 min 45 sec)
Heartbeat CPU 0 instructions: 1050000193 cycles: 1169368941 heartbeat IPC: 1.134 cumulative IPC: 0.7676 (Simulation time: 06 hr 14 min 31 sec)
Heartbeat CPU 0 instructions: 1060000195 cycles: 1178043308 heartbeat IPC: 1.153 cumulative IPC: 0.7706 (Simulation time: 06 hr 17 min 12 sec)
Heartbeat CPU 0 instructions: 1070000196 cycles: 1186859714 heartbeat IPC: 1.134 cumulative IPC: 0.7735 (Simulation time: 06 hr 19 min 55 sec)
Heartbeat CPU 0 instructions: 1080000198 cycles: 1195548965 heartbeat IPC: 1.151 cumulative IPC: 0.7764 (Simulation time: 06 hr 22 min 37 sec)
Heartbeat CPU 0 instructions: 1090000199 cycles: 1204372140 heartbeat IPC: 1.133 cumulative IPC: 0.7791 (Simulation time: 06 hr 25 min 21 sec)
Heartbeat CPU 0 instructions: 1100000200 cycles: 1213183026 heartbeat IPC: 1.135 cumulative IPC: 0.7818 (Simulation time: 06 hr 28 min 05 sec)
Heartbeat CPU 0 instructions: 1110000202 cycles: 1221850322 heartbeat IPC: 1.154 cumulative IPC: 0.7846 (Simulation time: 06 hr 30 min 51 sec)
Heartbeat CPU 0 instructions: 1120000202 cycles: 1230920704 heartbeat IPC: 1.102 cumulative IPC: 0.7871 (Simulation time: 06 hr 33 min 47 sec)
Heartbeat CPU 0 instructions: 1130000203 cycles: 1240502202 heartbeat IPC: 1.044 cumulative IPC: 0.7892 (Simulation time: 06 hr 36 min 42 sec)
Heartbeat CPU 0 instructions: 1140000207 cycles: 1251473417 heartbeat IPC: 0.9115 cumulative IPC: 0.7903 (Simulation time: 06 hr 40 min 15 sec)
Heartbeat CPU 0 instructions: 1150000209 cycles: 1263645609 heartbeat IPC: 0.8215 cumulative IPC: 0.7906 (Simulation time: 06 hr 44 min 02 sec)
Heartbeat CPU 0 instructions: 1160000213 cycles: 1277823160 heartbeat IPC: 0.7053 cumulative IPC: 0.7896 (Simulation time: 06 hr 48 min 10 sec)
Heartbeat CPU 0 instructions: 1170000214 cycles: 1295319888 heartbeat IPC: 0.5715 cumulative IPC: 0.7865 (Simulation time: 06 hr 53 min 06 sec)
Heartbeat CPU 0 instructions: 1180000215 cycles: 1317265012 heartbeat IPC: 0.4557 cumulative IPC: 0.7807 (Simulation time: 06 hr 59 min 09 sec)
Heartbeat CPU 0 instructions: 1190000218 cycles: 1340608423 heartbeat IPC: 0.4284 cumulative IPC: 0.7743 (Simulation time: 07 hr 05 min 36 sec)
Simulation finished CPU 0 instructions: 1000000002 cycles: 1304545429 cumulative IPC: 0.7666 (Simulation time: 07 hr 13 min 14 sec)
Simulation complete CPU 0 instructions: 1000000002 cycles: 1304545429 cumulative IPC: 0.7666 (Simulation time: 07 hr 13 min 14 sec)

ChampSim completed all CPUs

=== Simulation ===
CPU 0 runs /home/grads/b/bhavishya_k_s/ecen676/ChampSim/dpc3_traces/619.lbm_s-4268B.champsimtrace.xz

Region of Interest Statistics

CPU 0 cumulative IPC: 0.7666 instructions: 1000000002 cycles: 1304545429
CPU 0 Branch Prediction Accuracy: 97.81% MPKI: 0.3066 Average ROB Occupancy at Mispredict: 275.6
Branch type MPKI
BRANCH_DIRECT_JUMP: 3e-06
BRANCH_INDIRECT: 0
BRANCH_CONDITIONAL: 0.3066
BRANCH_DIRECT_CALL: 2e-06
BRANCH_INDIRECT_CALL: 0
BRANCH_RETURN: 2e-06

cpu0->cpu0_STLB TOTAL        ACCESS:     934784 HIT:     426896 MISS:     507888 MSHR_MERGE:          0
cpu0->cpu0_STLB LOAD         ACCESS:     934784 HIT:     426896 MISS:     507888 MSHR_MERGE:          0
cpu0->cpu0_STLB RFO          ACCESS:          0 HIT:          0 MISS:          0 MSHR_MERGE:          0
cpu0->cpu0_STLB PREFETCH     ACCESS:          0 HIT:          0 MISS:          0 MSHR_MERGE:          0
cpu0->cpu0_STLB WRITE        ACCESS:          0 HIT:          0 MISS:          0 MSHR_MERGE:          0
cpu0->cpu0_STLB TRANSLATION  ACCESS:          0 HIT:          0 MISS:          0 MSHR_MERGE:          0
cpu0->cpu0_STLB PREFETCH REQUESTED:          0 ISSUED:          0 USEFUL:          0 USELESS:          0
cpu0->cpu0_STLB AVERAGE MISS LATENCY: 219.1 cycles
cpu0->cpu0_L2C TOTAL        ACCESS:  175402198 HIT:   71431600 MISS:  103970598 MSHR_MERGE:    5973435
cpu0->cpu0_L2C LOAD         ACCESS:    8123530 HIT:    2099960 MISS:    6023570 MSHR_MERGE:    1287408
cpu0->cpu0_L2C RFO          ACCESS:   45830668 HIT:   20672168 MISS:   25158500 MSHR_MERGE:          0
cpu0->cpu0_L2C PREFETCH     ACCESS:   75105701 HIT:    2321065 MISS:   72784636 MSHR_MERGE:    4686027
cpu0->cpu0_L2C WRITE        ACCESS:   45834927 HIT:   45834868 MISS:         59 MSHR_MERGE:          0
cpu0->cpu0_L2C TRANSLATION  ACCESS:     507372 HIT:     503539 MISS:       3833 MSHR_MERGE:          0
cpu0->cpu0_L2C PREFETCH REQUESTED:  133835545 ISSUED:   75105701 USEFUL:    3387172 USELESS:         42
cpu0->cpu0_L2C AVERAGE MISS LATENCY: 565.2 cycles
cpu0->cpu0_L1I TOTAL        ACCESS:  168705282 HIT:  168705279 MISS:          3 MSHR_MERGE:          0
cpu0->cpu0_L1I LOAD         ACCESS:  168705282 HIT:  168705279 MISS:          3 MSHR_MERGE:          0
cpu0->cpu0_L1I RFO          ACCESS:          0 HIT:          0 MISS:          0 MSHR_MERGE:          0
cpu0->cpu0_L1I PREFETCH     ACCESS:          0 HIT:          0 MISS:          0 MSHR_MERGE:          0
cpu0->cpu0_L1I WRITE        ACCESS:          0 HIT:          0 MISS:          0 MSHR_MERGE:          0
cpu0->cpu0_L1I TRANSLATION  ACCESS:          0 HIT:          0 MISS:          0 MSHR_MERGE:          0
cpu0->cpu0_L1I PREFETCH REQUESTED:          0 ISSUED:          0 USEFUL:          0 USELESS:          0
cpu0->cpu0_L1I AVERAGE MISS LATENCY: 205 cycles
cpu0->cpu0_L1D TOTAL        ACCESS:  214625331 HIT:  154053866 MISS:   60571465 MSHR_MERGE:    6105670
cpu0->cpu0_L1D LOAD         ACCESS:   50978760 HIT:   39323472 MISS:   11655288 MSHR_MERGE:    3531757
cpu0->cpu0_L1D RFO          ACCESS:          0 HIT:          0 MISS:          0 MSHR_MERGE:          0
cpu0->cpu0_L1D PREFETCH     ACCESS:          0 HIT:          0 MISS:          0 MSHR_MERGE:          0
cpu0->cpu0_L1D WRITE        ACCESS:  163138168 HIT:  114729371 MISS:   48408797 MSHR_MERGE:    2573905
cpu0->cpu0_L1D TRANSLATION  ACCESS:     508403 HIT:       1023 MISS:     507380 MSHR_MERGE:          8
cpu0->cpu0_L1D PREFETCH REQUESTED:          0 ISSUED:          0 USEFUL:          0 USELESS:          0
cpu0->cpu0_L1D AVERAGE MISS LATENCY: 333.3 cycles
cpu0->cpu0_ITLB TOTAL        ACCESS:  128411204 HIT:  128411203 MISS:          1 MSHR_MERGE:          0
cpu0->cpu0_ITLB LOAD         ACCESS:  128411204 HIT:  128411203 MISS:          1 MSHR_MERGE:          0
cpu0->cpu0_ITLB RFO          ACCESS:          0 HIT:          0 MISS:          0 MSHR_MERGE:          0
cpu0->cpu0_ITLB PREFETCH     ACCESS:          0 HIT:          0 MISS:          0 MSHR_MERGE:          0
cpu0->cpu0_ITLB WRITE        ACCESS:          0 HIT:          0 MISS:          0 MSHR_MERGE:          0
cpu0->cpu0_ITLB TRANSLATION  ACCESS:          0 HIT:          0 MISS:          0 MSHR_MERGE:          0
cpu0->cpu0_ITLB PREFETCH REQUESTED:          0 ISSUED:          0 USEFUL:          0 USELESS:          0
cpu0->cpu0_ITLB AVERAGE MISS LATENCY: 539 cycles
cpu0->cpu0_DTLB TOTAL        ACCESS:  200768062 HIT:  199274269 MISS:    1493793 MSHR_MERGE:     559010
cpu0->cpu0_DTLB LOAD         ACCESS:  200768062 HIT:  199274269 MISS:    1493793 MSHR_MERGE:     559010
cpu0->cpu0_DTLB RFO          ACCESS:          0 HIT:          0 MISS:          0 MSHR_MERGE:          0
cpu0->cpu0_DTLB PREFETCH     ACCESS:          0 HIT:          0 MISS:          0 MSHR_MERGE:          0
cpu0->cpu0_DTLB WRITE        ACCESS:          0 HIT:          0 MISS:          0 MSHR_MERGE:          0
cpu0->cpu0_DTLB TRANSLATION  ACCESS:          0 HIT:          0 MISS:          0 MSHR_MERGE:          0
cpu0->cpu0_DTLB PREFETCH REQUESTED:          0 ISSUED:          0 USEFUL:          0 USELESS:          0
cpu0->cpu0_DTLB AVERAGE MISS LATENCY: 124.6 cycles
cpu0->LLC TOTAL        ACCESS:  123114381 HIT:   66896886 MISS:   56217495 MSHR_MERGE:   23719430
cpu0->LLC LOAD         ACCESS:    4736162 HIT:    3771721 MISS:     964441 MSHR_MERGE:     581521
cpu0->LLC RFO          ACCESS:   25158466 HIT:     788467 MISS:   24369999 MSHR_MERGE:          0
cpu0->LLC PREFETCH     ACCESS:   68057345 HIT:   37178225 MISS:   30879120 MSHR_MERGE:   23137909
cpu0->LLC WRITE        ACCESS:   25158575 HIT:   25158425 MISS:        150 MSHR_MERGE:          0
cpu0->LLC TRANSLATION  ACCESS:       3833 HIT:         48 MISS:       3785 MSHR_MERGE:          0
cpu0->LLC PREFETCH REQUESTED:          0 ISSUED:          0 USEFUL:          0 USELESS:          0
cpu0->LLC AVERAGE MISS LATENCY: 669.4 cycles

DRAM Statistics

Channel 0 RQ ROW_BUFFER_HIT:    2266768
  ROW_BUFFER_MISS:   30231135
  AVG DBUS CONGESTED CYCLE: 7.472
Channel 0 WQ ROW_BUFFER_HIT:    3224097
  ROW_BUFFER_MISS:   21146334
  FULL:          0
Channel 0 REFRESHES ISSUED:     108712
