[VMEM] WARNING: physical memory size is smaller than virtual memory size.
WARNING: option --warmup_instructions is deprecated. Use --warmup-instructions instead.
WARNING: option --simulation_instructions is deprecated. Use --simulation-instructions instead.

*** ChampSim Multicore Out-of-Order Simulator ***
Warmup Instructions: 200000000
Simulation Instructions: 1000000000
Number of CPUs: 1
Page size: 4096

Initialize SIGNATURE TABLE
ST_SET: 1
ST_WAY: 256
ST_TAG_BIT: 16

Initialize PATTERN TABLE
PT_SET: 512
PT_WAY: 4
SIG_DELTA_BIT: 7
C_SIG_BIT: 4
C_DELTA_BIT: 4

Initialize PREFETCH FILTER
FILTER_SET: 1024
Off-chip DRAM Size: 16 GiB Channels: 1 Width: 64-bit Data Rate: 3205 MT/s
Heartbeat CPU 0 instructions: 10000001 cycles: 3126742 heartbeat IPC: 3.198 cumulative IPC: 3.198 (Simulation time: 00 hr 01 min 01 sec)
Heartbeat CPU 0 instructions: 20000001 cycles: 6254187 heartbeat IPC: 3.197 cumulative IPC: 3.198 (Simulation time: 00 hr 02 min 02 sec)
Heartbeat CPU 0 instructions: 30000003 cycles: 9362010 heartbeat IPC: 3.218 cumulative IPC: 3.204 (Simulation time: 00 hr 03 min 03 sec)
Heartbeat CPU 0 instructions: 40000004 cycles: 12485542 heartbeat IPC: 3.202 cumulative IPC: 3.204 (Simulation time: 00 hr 04 min 05 sec)
Heartbeat CPU 0 instructions: 50000004 cycles: 15604849 heartbeat IPC: 3.206 cumulative IPC: 3.204 (Simulation time: 00 hr 05 min 06 sec)
Heartbeat CPU 0 instructions: 60000005 cycles: 18741055 heartbeat IPC: 3.189 cumulative IPC: 3.202 (Simulation time: 00 hr 06 min 07 sec)
Heartbeat CPU 0 instructions: 70000007 cycles: 21816946 heartbeat IPC: 3.251 cumulative IPC: 3.209 (Simulation time: 00 hr 07 min 07 sec)
Heartbeat CPU 0 instructions: 80000008 cycles: 24948707 heartbeat IPC: 3.193 cumulative IPC: 3.207 (Simulation time: 00 hr 08 min 08 sec)
Heartbeat CPU 0 instructions: 90000008 cycles: 28038660 heartbeat IPC: 3.236 cumulative IPC: 3.21 (Simulation time: 00 hr 09 min 09 sec)
Heartbeat CPU 0 instructions: 100000011 cycles: 31077209 heartbeat IPC: 3.291 cumulative IPC: 3.218 (Simulation time: 00 hr 10 min 09 sec)
Heartbeat CPU 0 instructions: 110000012 cycles: 34112780 heartbeat IPC: 3.294 cumulative IPC: 3.225 (Simulation time: 00 hr 11 min 09 sec)
Heartbeat CPU 0 instructions: 120000016 cycles: 37110370 heartbeat IPC: 3.336 cumulative IPC: 3.234 (Simulation time: 00 hr 12 min 09 sec)
Heartbeat CPU 0 instructions: 130000017 cycles: 40230174 heartbeat IPC: 3.205 cumulative IPC: 3.231 (Simulation time: 00 hr 13 min 10 sec)
Heartbeat CPU 0 instructions: 140000020 cycles: 43293789 heartbeat IPC: 3.264 cumulative IPC: 3.234 (Simulation time: 00 hr 14 min 11 sec)
Heartbeat CPU 0 instructions: 150000020 cycles: 46267698 heartbeat IPC: 3.363 cumulative IPC: 3.242 (Simulation time: 00 hr 15 min 11 sec)
Heartbeat CPU 0 instructions: 160000020 cycles: 49347510 heartbeat IPC: 3.247 cumulative IPC: 3.242 (Simulation time: 00 hr 16 min 12 sec)
Heartbeat CPU 0 instructions: 170000022 cycles: 52405775 heartbeat IPC: 3.27 cumulative IPC: 3.244 (Simulation time: 00 hr 17 min 12 sec)
Heartbeat CPU 0 instructions: 180000024 cycles: 55489820 heartbeat IPC: 3.242 cumulative IPC: 3.244 (Simulation time: 00 hr 18 min 13 sec)
Heartbeat CPU 0 instructions: 190000028 cycles: 58635677 heartbeat IPC: 3.179 cumulative IPC: 3.24 (Simulation time: 00 hr 19 min 15 sec)
Warmup finished CPU 0 instructions: 200000003 cycles: 61774971 cumulative IPC: 3.238 (Simulation time: 00 hr 20 min 17 sec)
Warmup complete CPU 0 instructions: 200000003 cycles: 61774971 cumulative IPC: 3.238 (Simulation time: 00 hr 20 min 17 sec)
Heartbeat CPU 0 instructions: 200000031 cycles: 61774978 heartbeat IPC: 3.185 cumulative IPC: 4 (Simulation time: 00 hr 20 min 17 sec)
Heartbeat CPU 0 instructions: 210000031 cycles: 68494829 heartbeat IPC: 1.488 cumulative IPC: 1.488 (Simulation time: 00 hr 21 min 38 sec)
Heartbeat CPU 0 instructions: 220000031 cycles: 75493575 heartbeat IPC: 1.429 cumulative IPC: 1.458 (Simulation time: 00 hr 22 min 59 sec)
Heartbeat CPU 0 instructions: 230000035 cycles: 82655186 heartbeat IPC: 1.396 cumulative IPC: 1.437 (Simulation time: 00 hr 24 min 22 sec)
Heartbeat CPU 0 instructions: 240000037 cycles: 89241280 heartbeat IPC: 1.518 cumulative IPC: 1.456 (Simulation time: 00 hr 25 min 42 sec)
Heartbeat CPU 0 instructions: 250000041 cycles: 95941778 heartbeat IPC: 1.492 cumulative IPC: 1.463 (Simulation time: 00 hr 27 min 02 sec)
Heartbeat CPU 0 instructions: 260000042 cycles: 102835243 heartbeat IPC: 1.451 cumulative IPC: 1.461 (Simulation time: 00 hr 28 min 23 sec)
Heartbeat CPU 0 instructions: 270000046 cycles: 109629817 heartbeat IPC: 1.472 cumulative IPC: 1.463 (Simulation time: 00 hr 29 min 44 sec)
Heartbeat CPU 0 instructions: 280000047 cycles: 116443763 heartbeat IPC: 1.468 cumulative IPC: 1.463 (Simulation time: 00 hr 31 min 05 sec)
Heartbeat CPU 0 instructions: 290000050 cycles: 123237504 heartbeat IPC: 1.472 cumulative IPC: 1.464 (Simulation time: 00 hr 32 min 27 sec)
Heartbeat CPU 0 instructions: 300000050 cycles: 129882189 heartbeat IPC: 1.505 cumulative IPC: 1.468 (Simulation time: 00 hr 33 min 46 sec)
Heartbeat CPU 0 instructions: 310000053 cycles: 136849883 heartbeat IPC: 1.435 cumulative IPC: 1.465 (Simulation time: 00 hr 35 min 07 sec)
Heartbeat CPU 0 instructions: 320000057 cycles: 143623650 heartbeat IPC: 1.476 cumulative IPC: 1.466 (Simulation time: 00 hr 36 min 27 sec)
Heartbeat CPU 0 instructions: 330000061 cycles: 150547318 heartbeat IPC: 1.444 cumulative IPC: 1.464 (Simulation time: 00 hr 37 min 48 sec)
Heartbeat CPU 0 instructions: 340000061 cycles: 157277362 heartbeat IPC: 1.486 cumulative IPC: 1.466 (Simulation time: 00 hr 39 min 08 sec)
Heartbeat CPU 0 instructions: 350000063 cycles: 163983677 heartbeat IPC: 1.491 cumulative IPC: 1.468 (Simulation time: 00 hr 40 min 28 sec)
Heartbeat CPU 0 instructions: 360000067 cycles: 170775810 heartbeat IPC: 1.472 cumulative IPC: 1.468 (Simulation time: 00 hr 41 min 48 sec)
Heartbeat CPU 0 instructions: 370000068 cycles: 177655163 heartbeat IPC: 1.454 cumulative IPC: 1.467 (Simulation time: 00 hr 43 min 09 sec)
Heartbeat CPU 0 instructions: 380000069 cycles: 184175478 heartbeat IPC: 1.534 cumulative IPC: 1.471 (Simulation time: 00 hr 44 min 28 sec)
Heartbeat CPU 0 instructions: 390000071 cycles: 190934851 heartbeat IPC: 1.479 cumulative IPC: 1.471 (Simulation time: 00 hr 45 min 49 sec)
Heartbeat CPU 0 instructions: 400000071 cycles: 197781260 heartbeat IPC: 1.461 cumulative IPC: 1.471 (Simulation time: 00 hr 47 min 09 sec)
Heartbeat CPU 0 instructions: 410000075 cycles: 204753621 heartbeat IPC: 1.434 cumulative IPC: 1.469 (Simulation time: 00 hr 48 min 30 sec)
Heartbeat CPU 0 instructions: 420000076 cycles: 211401658 heartbeat IPC: 1.504 cumulative IPC: 1.47 (Simulation time: 00 hr 49 min 50 sec)
Heartbeat CPU 0 instructions: 430000079 cycles: 217828700 heartbeat IPC: 1.556 cumulative IPC: 1.474 (Simulation time: 00 hr 51 min 08 sec)
Heartbeat CPU 0 instructions: 440000079 cycles: 224464499 heartbeat IPC: 1.507 cumulative IPC: 1.475 (Simulation time: 00 hr 52 min 28 sec)
Heartbeat CPU 0 instructions: 450000083 cycles: 231247849 heartbeat IPC: 1.474 cumulative IPC: 1.475 (Simulation time: 00 hr 53 min 48 sec)
Heartbeat CPU 0 instructions: 460000083 cycles: 237988492 heartbeat IPC: 1.484 cumulative IPC: 1.475 (Simulation time: 00 hr 55 min 08 sec)
Heartbeat CPU 0 instructions: 470000083 cycles: 244470630 heartbeat IPC: 1.543 cumulative IPC: 1.478 (Simulation time: 00 hr 56 min 27 sec)
Heartbeat CPU 0 instructions: 480000084 cycles: 250971017 heartbeat IPC: 1.538 cumulative IPC: 1.48 (Simulation time: 00 hr 57 min 46 sec)
Heartbeat CPU 0 instructions: 490000084 cycles: 257679809 heartbeat IPC: 1.491 cumulative IPC: 1.48 (Simulation time: 00 hr 59 min 06 sec)
Heartbeat CPU 0 instructions: 500000087 cycles: 264489701 heartbeat IPC: 1.468 cumulative IPC: 1.48 (Simulation time: 01 hr 00 min 27 sec)
Heartbeat CPU 0 instructions: 510000089 cycles: 271129880 heartbeat IPC: 1.506 cumulative IPC: 1.481 (Simulation time: 01 hr 01 min 46 sec)
Heartbeat CPU 0 instructions: 520000090 cycles: 277789965 heartbeat IPC: 1.501 cumulative IPC: 1.481 (Simulation time: 01 hr 03 min 06 sec)
Heartbeat CPU 0 instructions: 530000094 cycles: 284519758 heartbeat IPC: 1.486 cumulative IPC: 1.482 (Simulation time: 01 hr 04 min 26 sec)
Heartbeat CPU 0 instructions: 540000095 cycles: 291160238 heartbeat IPC: 1.506 cumulative IPC: 1.482 (Simulation time: 01 hr 05 min 45 sec)
Heartbeat CPU 0 instructions: 550000095 cycles: 297785008 heartbeat IPC: 1.509 cumulative IPC: 1.483 (Simulation time: 01 hr 07 min 05 sec)
Heartbeat CPU 0 instructions: 560000097 cycles: 304397717 heartbeat IPC: 1.512 cumulative IPC: 1.484 (Simulation time: 01 hr 08 min 24 sec)
Heartbeat CPU 0 instructions: 570000097 cycles: 310921707 heartbeat IPC: 1.533 cumulative IPC: 1.485 (Simulation time: 01 hr 09 min 43 sec)
Heartbeat CPU 0 instructions: 580000097 cycles: 317657154 heartbeat IPC: 1.485 cumulative IPC: 1.485 (Simulation time: 01 hr 11 min 03 sec)
Heartbeat CPU 0 instructions: 590000097 cycles: 324612823 heartbeat IPC: 1.438 cumulative IPC: 1.484 (Simulation time: 01 hr 12 min 25 sec)
Heartbeat CPU 0 instructions: 600000097 cycles: 331361517 heartbeat IPC: 1.482 cumulative IPC: 1.484 (Simulation time: 01 hr 13 min 46 sec)
Heartbeat CPU 0 instructions: 610000099 cycles: 338291920 heartbeat IPC: 1.443 cumulative IPC: 1.483 (Simulation time: 01 hr 15 min 07 sec)
Heartbeat CPU 0 instructions: 620000101 cycles: 345061988 heartbeat IPC: 1.477 cumulative IPC: 1.483 (Simulation time: 01 hr 16 min 27 sec)
Heartbeat CPU 0 instructions: 630000102 cycles: 351787959 heartbeat IPC: 1.487 cumulative IPC: 1.483 (Simulation time: 01 hr 17 min 45 sec)
Heartbeat CPU 0 instructions: 640000102 cycles: 358544220 heartbeat IPC: 1.48 cumulative IPC: 1.483 (Simulation time: 01 hr 19 min 03 sec)
Heartbeat CPU 0 instructions: 650000103 cycles: 365309992 heartbeat IPC: 1.478 cumulative IPC: 1.483 (Simulation time: 01 hr 20 min 22 sec)
Heartbeat CPU 0 instructions: 660000106 cycles: 372019121 heartbeat IPC: 1.491 cumulative IPC: 1.483 (Simulation time: 01 hr 21 min 42 sec)
Heartbeat CPU 0 instructions: 670000108 cycles: 378476449 heartbeat IPC: 1.549 cumulative IPC: 1.484 (Simulation time: 01 hr 22 min 58 sec)
Heartbeat CPU 0 instructions: 680000111 cycles: 385039921 heartbeat IPC: 1.524 cumulative IPC: 1.485 (Simulation time: 01 hr 24 min 13 sec)
Heartbeat CPU 0 instructions: 690000112 cycles: 391938808 heartbeat IPC: 1.45 cumulative IPC: 1.484 (Simulation time: 01 hr 25 min 32 sec)
Heartbeat CPU 0 instructions: 700000113 cycles: 398796407 heartbeat IPC: 1.458 cumulative IPC: 1.484 (Simulation time: 01 hr 26 min 49 sec)
Heartbeat CPU 0 instructions: 710000113 cycles: 405417385 heartbeat IPC: 1.51 cumulative IPC: 1.484 (Simulation time: 01 hr 28 min 06 sec)
Heartbeat CPU 0 instructions: 720000115 cycles: 411996920 heartbeat IPC: 1.52 cumulative IPC: 1.485 (Simulation time: 01 hr 29 min 22 sec)
Heartbeat CPU 0 instructions: 730000118 cycles: 418655388 heartbeat IPC: 1.502 cumulative IPC: 1.485 (Simulation time: 01 hr 30 min 38 sec)
Heartbeat CPU 0 instructions: 740000120 cycles: 425248367 heartbeat IPC: 1.517 cumulative IPC: 1.486 (Simulation time: 01 hr 31 min 54 sec)
Heartbeat CPU 0 instructions: 750000121 cycles: 432132233 heartbeat IPC: 1.453 cumulative IPC: 1.485 (Simulation time: 01 hr 33 min 13 sec)
Heartbeat CPU 0 instructions: 760000123 cycles: 438894590 heartbeat IPC: 1.479 cumulative IPC: 1.485 (Simulation time: 01 hr 34 min 30 sec)
Heartbeat CPU 0 instructions: 770000123 cycles: 445712139 heartbeat IPC: 1.467 cumulative IPC: 1.485 (Simulation time: 01 hr 35 min 48 sec)
Heartbeat CPU 0 instructions: 780000127 cycles: 452521744 heartbeat IPC: 1.469 cumulative IPC: 1.484 (Simulation time: 01 hr 37 min 06 sec)
Heartbeat CPU 0 instructions: 790000128 cycles: 459100168 heartbeat IPC: 1.52 cumulative IPC: 1.485 (Simulation time: 01 hr 38 min 24 sec)
Heartbeat CPU 0 instructions: 800000130 cycles: 465809869 heartbeat IPC: 1.49 cumulative IPC: 1.485 (Simulation time: 01 hr 39 min 41 sec)
Heartbeat CPU 0 instructions: 810000130 cycles: 472522242 heartbeat IPC: 1.49 cumulative IPC: 1.485 (Simulation time: 01 hr 40 min 59 sec)
Heartbeat CPU 0 instructions: 820000130 cycles: 479027017 heartbeat IPC: 1.537 cumulative IPC: 1.486 (Simulation time: 01 hr 42 min 15 sec)
Heartbeat CPU 0 instructions: 830000131 cycles: 485481384 heartbeat IPC: 1.549 cumulative IPC: 1.487 (Simulation time: 01 hr 43 min 32 sec)
Heartbeat CPU 0 instructions: 840000132 cycles: 491919633 heartbeat IPC: 1.553 cumulative IPC: 1.488 (Simulation time: 01 hr 44 min 47 sec)
Heartbeat CPU 0 instructions: 850000135 cycles: 498880848 heartbeat IPC: 1.437 cumulative IPC: 1.487 (Simulation time: 01 hr 46 min 06 sec)
Heartbeat CPU 0 instructions: 860000135 cycles: 505595604 heartbeat IPC: 1.489 cumulative IPC: 1.487 (Simulation time: 01 hr 47 min 23 sec)
Heartbeat CPU 0 instructions: 870000135 cycles: 512017146 heartbeat IPC: 1.557 cumulative IPC: 1.488 (Simulation time: 01 hr 48 min 40 sec)
Heartbeat CPU 0 instructions: 880000138 cycles: 518783297 heartbeat IPC: 1.478 cumulative IPC: 1.488 (Simulation time: 01 hr 49 min 58 sec)
Heartbeat CPU 0 instructions: 890000138 cycles: 525598191 heartbeat IPC: 1.467 cumulative IPC: 1.488 (Simulation time: 01 hr 51 min 17 sec)
Heartbeat CPU 0 instructions: 900000138 cycles: 532491283 heartbeat IPC: 1.451 cumulative IPC: 1.487 (Simulation time: 01 hr 52 min 36 sec)
Heartbeat CPU 0 instructions: 910000138 cycles: 539352816 heartbeat IPC: 1.457 cumulative IPC: 1.487 (Simulation time: 01 hr 53 min 55 sec)
Heartbeat CPU 0 instructions: 920000142 cycles: 546006348 heartbeat IPC: 1.503 cumulative IPC: 1.487 (Simulation time: 01 hr 55 min 15 sec)
Heartbeat CPU 0 instructions: 930000143 cycles: 552721108 heartbeat IPC: 1.489 cumulative IPC: 1.487 (Simulation time: 01 hr 56 min 36 sec)
Heartbeat CPU 0 instructions: 940000145 cycles: 559033413 heartbeat IPC: 1.584 cumulative IPC: 1.488 (Simulation time: 01 hr 57 min 51 sec)
Heartbeat CPU 0 instructions: 950000149 cycles: 565438945 heartbeat IPC: 1.561 cumulative IPC: 1.489 (Simulation time: 01 hr 59 min 08 sec)
Heartbeat CPU 0 instructions: 960000149 cycles: 571771820 heartbeat IPC: 1.579 cumulative IPC: 1.49 (Simulation time: 02 hr 00 min 24 sec)
Heartbeat CPU 0 instructions: 970000149 cycles: 578259211 heartbeat IPC: 1.541 cumulative IPC: 1.491 (Simulation time: 02 hr 01 min 41 sec)
Heartbeat CPU 0 instructions: 980000150 cycles: 584984682 heartbeat IPC: 1.487 cumulative IPC: 1.491 (Simulation time: 02 hr 02 min 58 sec)
Heartbeat CPU 0 instructions: 990000151 cycles: 591596598 heartbeat IPC: 1.512 cumulative IPC: 1.491 (Simulation time: 02 hr 04 min 15 sec)
Heartbeat CPU 0 instructions: 1000000154 cycles: 598738607 heartbeat IPC: 1.4 cumulative IPC: 1.49 (Simulation time: 02 hr 05 min 36 sec)
Heartbeat CPU 0 instructions: 1010000154 cycles: 605426543 heartbeat IPC: 1.495 cumulative IPC: 1.49 (Simulation time: 02 hr 06 min 54 sec)
Heartbeat CPU 0 instructions: 1020000155 cycles: 612282876 heartbeat IPC: 1.459 cumulative IPC: 1.49 (Simulation time: 02 hr 08 min 12 sec)
Heartbeat CPU 0 instructions: 1030000159 cycles: 619222817 heartbeat IPC: 1.441 cumulative IPC: 1.489 (Simulation time: 02 hr 09 min 31 sec)
Heartbeat CPU 0 instructions: 1040000163 cycles: 626076806 heartbeat IPC: 1.459 cumulative IPC: 1.489 (Simulation time: 02 hr 10 min 49 sec)
Heartbeat CPU 0 instructions: 1050000166 cycles: 632775693 heartbeat IPC: 1.493 cumulative IPC: 1.489 (Simulation time: 02 hr 12 min 07 sec)
Heartbeat CPU 0 instructions: 1060000168 cycles: 639772854 heartbeat IPC: 1.429 cumulative IPC: 1.488 (Simulation time: 02 hr 13 min 25 sec)
Heartbeat CPU 0 instructions: 1070000171 cycles: 646599600 heartbeat IPC: 1.465 cumulative IPC: 1.488 (Simulation time: 02 hr 14 min 43 sec)
Heartbeat CPU 0 instructions: 1080000171 cycles: 653410176 heartbeat IPC: 1.468 cumulative IPC: 1.487 (Simulation time: 02 hr 16 min 01 sec)
Heartbeat CPU 0 instructions: 1090000172 cycles: 660163069 heartbeat IPC: 1.481 cumulative IPC: 1.487 (Simulation time: 02 hr 17 min 19 sec)
Heartbeat CPU 0 instructions: 1100000172 cycles: 666758624 heartbeat IPC: 1.516 cumulative IPC: 1.488 (Simulation time: 02 hr 18 min 38 sec)
Heartbeat CPU 0 instructions: 1110000174 cycles: 673675638 heartbeat IPC: 1.446 cumulative IPC: 1.487 (Simulation time: 02 hr 19 min 56 sec)
Heartbeat CPU 0 instructions: 1120000174 cycles: 680654323 heartbeat IPC: 1.433 cumulative IPC: 1.487 (Simulation time: 02 hr 21 min 15 sec)
Heartbeat CPU 0 instructions: 1130000174 cycles: 687504608 heartbeat IPC: 1.46 cumulative IPC: 1.486 (Simulation time: 02 hr 22 min 35 sec)
Heartbeat CPU 0 instructions: 1140000177 cycles: 694176221 heartbeat IPC: 1.499 cumulative IPC: 1.486 (Simulation time: 02 hr 23 min 54 sec)
Heartbeat CPU 0 instructions: 1150000179 cycles: 701069763 heartbeat IPC: 1.451 cumulative IPC: 1.486 (Simulation time: 02 hr 25 min 15 sec)
Heartbeat CPU 0 instructions: 1160000180 cycles: 707921443 heartbeat IPC: 1.459 cumulative IPC: 1.486 (Simulation time: 02 hr 26 min 35 sec)
Heartbeat CPU 0 instructions: 1170000181 cycles: 714773897 heartbeat IPC: 1.459 cumulative IPC: 1.485 (Simulation time: 02 hr 27 min 55 sec)
Heartbeat CPU 0 instructions: 1180000183 cycles: 721641215 heartbeat IPC: 1.456 cumulative IPC: 1.485 (Simulation time: 02 hr 29 min 15 sec)
Heartbeat CPU 0 instructions: 1190000185 cycles: 728393908 heartbeat IPC: 1.481 cumulative IPC: 1.485 (Simulation time: 02 hr 30 min 36 sec)
Simulation finished CPU 0 instructions: 1000000001 cycles: 673084616 cumulative IPC: 1.486 (Simulation time: 02 hr 31 min 56 sec)
Simulation complete CPU 0 instructions: 1000000001 cycles: 673084616 cumulative IPC: 1.486 (Simulation time: 02 hr 31 min 56 sec)

ChampSim completed all CPUs

=== Simulation ===
CPU 0 runs /home/grads/b/bhavishya_k_s/ecen676/ChampSim/dpc3_traces/631.deepsjeng_s-928B.champsimtrace.xz

Region of Interest Statistics

CPU 0 cumulative IPC: 1.486 instructions: 1000000001 cycles: 673084616
CPU 0 Branch Prediction Accuracy: 91.69% MPKI: 12.28 Average ROB Occupancy at Mispredict: 40.16
Branch type MPKI
BRANCH_DIRECT_JUMP: 0.02052
BRANCH_INDIRECT: 0.009483
BRANCH_CONDITIONAL: 11.77
BRANCH_DIRECT_CALL: 0.01892
BRANCH_INDIRECT_CALL: 0
BRANCH_RETURN: 0.4582

cpu0->cpu0_STLB TOTAL        ACCESS:     266321 HIT:      94671 MISS:     171650 MSHR_MERGE:          0
cpu0->cpu0_STLB LOAD         ACCESS:     266321 HIT:      94671 MISS:     171650 MSHR_MERGE:          0
cpu0->cpu0_STLB RFO          ACCESS:          0 HIT:          0 MISS:          0 MSHR_MERGE:          0
cpu0->cpu0_STLB PREFETCH     ACCESS:          0 HIT:          0 MISS:          0 MSHR_MERGE:          0
cpu0->cpu0_STLB WRITE        ACCESS:          0 HIT:          0 MISS:          0 MSHR_MERGE:          0
cpu0->cpu0_STLB TRANSLATION  ACCESS:          0 HIT:          0 MISS:          0 MSHR_MERGE:          0
cpu0->cpu0_STLB PREFETCH REQUESTED:          0 ISSUED:          0 USEFUL:          0 USELESS:          0
cpu0->cpu0_STLB AVERAGE MISS LATENCY: 602 cycles
cpu0->cpu0_L2C TOTAL        ACCESS:    3495769 HIT:    2462066 MISS:    1033703 MSHR_MERGE:      86214
cpu0->cpu0_L2C LOAD         ACCESS:    1485541 HIT:    1201477 MISS:     284064 MSHR_MERGE:          0
cpu0->cpu0_L2C RFO          ACCESS:     247726 HIT:     235055 MISS:      12671 MSHR_MERGE:          0
cpu0->cpu0_L2C PREFETCH     ACCESS:     955149 HIT:     458932 MISS:     496217 MSHR_MERGE:      86214
cpu0->cpu0_L2C WRITE        ACCESS:     479796 HIT:     478985 MISS:        811 MSHR_MERGE:          0
cpu0->cpu0_L2C TRANSLATION  ACCESS:     327557 HIT:      87617 MISS:     239940 MSHR_MERGE:          0
cpu0->cpu0_L2C PREFETCH REQUESTED:     955149 ISSUED:     955149 USEFUL:         46 USELESS:         97
cpu0->cpu0_L2C AVERAGE MISS LATENCY: 168.7 cycles
cpu0->cpu0_L1I TOTAL        ACCESS:  119627054 HIT:  118458622 MISS:    1168432 MSHR_MERGE:     242447
cpu0->cpu0_L1I LOAD         ACCESS:  119627054 HIT:  118458622 MISS:    1168432 MSHR_MERGE:     242447
cpu0->cpu0_L1I RFO          ACCESS:          0 HIT:          0 MISS:          0 MSHR_MERGE:          0
cpu0->cpu0_L1I PREFETCH     ACCESS:          0 HIT:          0 MISS:          0 MSHR_MERGE:          0
cpu0->cpu0_L1I WRITE        ACCESS:          0 HIT:          0 MISS:          0 MSHR_MERGE:          0
cpu0->cpu0_L1I TRANSLATION  ACCESS:          0 HIT:          0 MISS:          0 MSHR_MERGE:          0
cpu0->cpu0_L1I PREFETCH REQUESTED:          0 ISSUED:          0 USEFUL:          0 USELESS:          0
cpu0->cpu0_L1I AVERAGE MISS LATENCY: 7.263 cycles
cpu0->cpu0_L1D TOTAL        ACCESS:  296793889 HIT:  295010315 MISS:    1783574 MSHR_MERGE:     648703
cpu0->cpu0_L1D LOAD         ACCESS:  177731084 HIT:  176933438 MISS:     797646 MSHR_MERGE:     238059
cpu0->cpu0_L1D RFO          ACCESS:          0 HIT:          0 MISS:          0 MSHR_MERGE:          0
cpu0->cpu0_L1D PREFETCH     ACCESS:          0 HIT:          0 MISS:          0 MSHR_MERGE:          0
cpu0->cpu0_L1D WRITE        ACCESS:  118716797 HIT:  118059251 MISS:     657546 MSHR_MERGE:     409819
cpu0->cpu0_L1D TRANSLATION  ACCESS:     346008 HIT:      17626 MISS:     328382 MSHR_MERGE:        825
cpu0->cpu0_L1D PREFETCH REQUESTED:          0 ISSUED:          0 USEFUL:          0 USELESS:          0
cpu0->cpu0_L1D AVERAGE MISS LATENCY: 88.22 cycles
cpu0->cpu0_ITLB TOTAL        ACCESS:  102054068 HIT:  102054068 MISS:          0 MSHR_MERGE:          0
cpu0->cpu0_ITLB LOAD         ACCESS:  102054068 HIT:  102054068 MISS:          0 MSHR_MERGE:          0
cpu0->cpu0_ITLB RFO          ACCESS:          0 HIT:          0 MISS:          0 MSHR_MERGE:          0
cpu0->cpu0_ITLB PREFETCH     ACCESS:          0 HIT:          0 MISS:          0 MSHR_MERGE:          0
cpu0->cpu0_ITLB WRITE        ACCESS:          0 HIT:          0 MISS:          0 MSHR_MERGE:          0
cpu0->cpu0_ITLB TRANSLATION  ACCESS:          0 HIT:          0 MISS:          0 MSHR_MERGE:          0
cpu0->cpu0_ITLB PREFETCH REQUESTED:          0 ISSUED:          0 USEFUL:          0 USELESS:          0
cpu0->cpu0_ITLB AVERAGE MISS LATENCY: - cycles
cpu0->cpu0_DTLB TOTAL        ACCESS:  277202033 HIT:  276663755 MISS:     538278 MSHR_MERGE:     271957
cpu0->cpu0_DTLB LOAD         ACCESS:  277202033 HIT:  276663755 MISS:     538278 MSHR_MERGE:     271957
cpu0->cpu0_DTLB RFO          ACCESS:          0 HIT:          0 MISS:          0 MSHR_MERGE:          0
cpu0->cpu0_DTLB PREFETCH     ACCESS:          0 HIT:          0 MISS:          0 MSHR_MERGE:          0
cpu0->cpu0_DTLB WRITE        ACCESS:          0 HIT:          0 MISS:          0 MSHR_MERGE:          0
cpu0->cpu0_DTLB TRANSLATION  ACCESS:          0 HIT:          0 MISS:          0 MSHR_MERGE:          0
cpu0->cpu0_DTLB PREFETCH REQUESTED:          0 ISSUED:          0 USEFUL:          0 USELESS:          0
cpu0->cpu0_DTLB AVERAGE MISS LATENCY: 393.7 cycles
cpu0->LLC TOTAL        ACCESS:    1150842 HIT:     428737 MISS:     722105 MSHR_MERGE:       5875
cpu0->LLC LOAD         ACCESS:     284064 HIT:      21419 MISS:     262645 MSHR_MERGE:        187
cpu0->LLC RFO          ACCESS:      12671 HIT:       8057 MISS:       4614 MSHR_MERGE:         36
cpu0->LLC PREFETCH     ACCESS:     410003 HIT:     188481 MISS:     221522 MSHR_MERGE:       5652
cpu0->LLC WRITE        ACCESS:     204164 HIT:     200202 MISS:       3962 MSHR_MERGE:          0
cpu0->LLC TRANSLATION  ACCESS:     239940 HIT:      10578 MISS:     229362 MSHR_MERGE:          0
cpu0->LLC PREFETCH REQUESTED:          0 ISSUED:          0 USEFUL:          0 USELESS:          0
cpu0->LLC AVERAGE MISS LATENCY: 164.1 cycles

DRAM Statistics

Channel 0 RQ ROW_BUFFER_HIT:        256
  ROW_BUFFER_MISS:     712011
  AVG DBUS CONGESTED CYCLE: 8.166
Channel 0 WQ ROW_BUFFER_HIT:       8169
  ROW_BUFFER_MISS:     186950
  FULL:          0
Channel 0 REFRESHES ISSUED:      56091
