[VMEM] WARNING: physical memory size is smaller than virtual memory size.
WARNING: option --warmup_instructions is deprecated. Use --warmup-instructions instead.
WARNING: option --simulation_instructions is deprecated. Use --simulation-instructions instead.

*** ChampSim Multicore Out-of-Order Simulator ***
Warmup Instructions: 200000000
Simulation Instructions: 1000000000
Number of CPUs: 1
Page size: 4096

Initialize SIGNATURE TABLE
ST_SET: 1
ST_WAY: 256
ST_TAG_BIT: 16

Initialize PATTERN TABLE
PT_SET: 512
PT_WAY: 4
SIG_DELTA_BIT: 7
C_SIG_BIT: 4
C_DELTA_BIT: 4

Initialize PREFETCH FILTER
FILTER_SET: 1024
Off-chip DRAM Size: 16 GiB Channels: 1 Width: 64-bit Data Rate: 3205 MT/s
Heartbeat CPU 0 instructions: 10000001 cycles: 2515299 heartbeat IPC: 3.976 cumulative IPC: 3.976 (Simulation time: 00 hr 00 min 51 sec)
Heartbeat CPU 0 instructions: 20000003 cycles: 5027032 heartbeat IPC: 3.981 cumulative IPC: 3.978 (Simulation time: 00 hr 01 min 42 sec)
Heartbeat CPU 0 instructions: 30000003 cycles: 7540795 heartbeat IPC: 3.978 cumulative IPC: 3.978 (Simulation time: 00 hr 02 min 33 sec)
Heartbeat CPU 0 instructions: 40000007 cycles: 10058772 heartbeat IPC: 3.971 cumulative IPC: 3.977 (Simulation time: 00 hr 03 min 23 sec)
Heartbeat CPU 0 instructions: 50000009 cycles: 12575550 heartbeat IPC: 3.973 cumulative IPC: 3.976 (Simulation time: 00 hr 04 min 14 sec)
Heartbeat CPU 0 instructions: 60000013 cycles: 15094107 heartbeat IPC: 3.971 cumulative IPC: 3.975 (Simulation time: 00 hr 05 min 05 sec)
Heartbeat CPU 0 instructions: 70000013 cycles: 17606185 heartbeat IPC: 3.981 cumulative IPC: 3.976 (Simulation time: 00 hr 05 min 56 sec)
Heartbeat CPU 0 instructions: 80000013 cycles: 20118842 heartbeat IPC: 3.98 cumulative IPC: 3.976 (Simulation time: 00 hr 06 min 48 sec)
Heartbeat CPU 0 instructions: 90000014 cycles: 22635102 heartbeat IPC: 3.974 cumulative IPC: 3.976 (Simulation time: 00 hr 07 min 40 sec)
Heartbeat CPU 0 instructions: 100000018 cycles: 25147056 heartbeat IPC: 3.981 cumulative IPC: 3.977 (Simulation time: 00 hr 08 min 32 sec)
Heartbeat CPU 0 instructions: 110000022 cycles: 27659182 heartbeat IPC: 3.981 cumulative IPC: 3.977 (Simulation time: 00 hr 09 min 25 sec)
Heartbeat CPU 0 instructions: 120000024 cycles: 30172189 heartbeat IPC: 3.979 cumulative IPC: 3.977 (Simulation time: 00 hr 10 min 17 sec)
Heartbeat CPU 0 instructions: 130000028 cycles: 32681594 heartbeat IPC: 3.985 cumulative IPC: 3.978 (Simulation time: 00 hr 11 min 08 sec)
Heartbeat CPU 0 instructions: 140000028 cycles: 35190757 heartbeat IPC: 3.985 cumulative IPC: 3.978 (Simulation time: 00 hr 11 min 59 sec)
Heartbeat CPU 0 instructions: 150000031 cycles: 37700679 heartbeat IPC: 3.984 cumulative IPC: 3.979 (Simulation time: 00 hr 12 min 50 sec)
Heartbeat CPU 0 instructions: 160000033 cycles: 40209737 heartbeat IPC: 3.986 cumulative IPC: 3.979 (Simulation time: 00 hr 13 min 41 sec)
Heartbeat CPU 0 instructions: 170000037 cycles: 42719578 heartbeat IPC: 3.984 cumulative IPC: 3.979 (Simulation time: 00 hr 14 min 32 sec)
Heartbeat CPU 0 instructions: 180000037 cycles: 45228834 heartbeat IPC: 3.985 cumulative IPC: 3.98 (Simulation time: 00 hr 15 min 23 sec)
Heartbeat CPU 0 instructions: 190000039 cycles: 47737422 heartbeat IPC: 3.986 cumulative IPC: 3.98 (Simulation time: 00 hr 16 min 14 sec)
Warmup finished CPU 0 instructions: 200000004 cycles: 50246306 cumulative IPC: 3.98 (Simulation time: 00 hr 17 min 05 sec)
Warmup complete CPU 0 instructions: 200000004 cycles: 50246306 cumulative IPC: 3.98 (Simulation time: 00 hr 17 min 05 sec)
Heartbeat CPU 0 instructions: 200000039 cycles: 50246313 heartbeat IPC: 3.986 cumulative IPC: 5 (Simulation time: 00 hr 17 min 05 sec)
Heartbeat CPU 0 instructions: 210000041 cycles: 57044180 heartbeat IPC: 1.471 cumulative IPC: 1.471 (Simulation time: 00 hr 18 min 18 sec)
Heartbeat CPU 0 instructions: 220000041 cycles: 63936535 heartbeat IPC: 1.451 cumulative IPC: 1.461 (Simulation time: 00 hr 19 min 31 sec)
Heartbeat CPU 0 instructions: 230000045 cycles: 70818961 heartbeat IPC: 1.453 cumulative IPC: 1.458 (Simulation time: 00 hr 20 min 44 sec)
Heartbeat CPU 0 instructions: 240000045 cycles: 77711033 heartbeat IPC: 1.451 cumulative IPC: 1.456 (Simulation time: 00 hr 21 min 57 sec)
Heartbeat CPU 0 instructions: 250000048 cycles: 84632312 heartbeat IPC: 1.445 cumulative IPC: 1.454 (Simulation time: 00 hr 23 min 09 sec)
Heartbeat CPU 0 instructions: 260000048 cycles: 91540217 heartbeat IPC: 1.448 cumulative IPC: 1.453 (Simulation time: 00 hr 24 min 22 sec)
Heartbeat CPU 0 instructions: 270000048 cycles: 98425964 heartbeat IPC: 1.452 cumulative IPC: 1.453 (Simulation time: 00 hr 25 min 35 sec)
Heartbeat CPU 0 instructions: 280000048 cycles: 105305578 heartbeat IPC: 1.454 cumulative IPC: 1.453 (Simulation time: 00 hr 26 min 48 sec)
Heartbeat CPU 0 instructions: 290000050 cycles: 112177150 heartbeat IPC: 1.455 cumulative IPC: 1.453 (Simulation time: 00 hr 28 min 00 sec)
Heartbeat CPU 0 instructions: 300000053 cycles: 119047754 heartbeat IPC: 1.455 cumulative IPC: 1.453 (Simulation time: 00 hr 29 min 12 sec)
Heartbeat CPU 0 instructions: 310000053 cycles: 125921241 heartbeat IPC: 1.455 cumulative IPC: 1.454 (Simulation time: 00 hr 30 min 25 sec)
Heartbeat CPU 0 instructions: 320000055 cycles: 132804224 heartbeat IPC: 1.453 cumulative IPC: 1.454 (Simulation time: 00 hr 31 min 37 sec)
Heartbeat CPU 0 instructions: 330000055 cycles: 139745399 heartbeat IPC: 1.441 cumulative IPC: 1.453 (Simulation time: 00 hr 32 min 50 sec)
Heartbeat CPU 0 instructions: 340000057 cycles: 146655591 heartbeat IPC: 1.447 cumulative IPC: 1.452 (Simulation time: 00 hr 34 min 03 sec)
Heartbeat CPU 0 instructions: 350000058 cycles: 153558081 heartbeat IPC: 1.449 cumulative IPC: 1.452 (Simulation time: 00 hr 35 min 16 sec)
Heartbeat CPU 0 instructions: 360000059 cycles: 160447177 heartbeat IPC: 1.452 cumulative IPC: 1.452 (Simulation time: 00 hr 36 min 30 sec)
Heartbeat CPU 0 instructions: 370000059 cycles: 167338534 heartbeat IPC: 1.451 cumulative IPC: 1.452 (Simulation time: 00 hr 37 min 43 sec)
Heartbeat CPU 0 instructions: 380000062 cycles: 174239560 heartbeat IPC: 1.449 cumulative IPC: 1.452 (Simulation time: 00 hr 38 min 56 sec)
Heartbeat CPU 0 instructions: 390000063 cycles: 181132385 heartbeat IPC: 1.451 cumulative IPC: 1.452 (Simulation time: 00 hr 40 min 09 sec)
Heartbeat CPU 0 instructions: 400000064 cycles: 188023338 heartbeat IPC: 1.451 cumulative IPC: 1.452 (Simulation time: 00 hr 41 min 22 sec)
Heartbeat CPU 0 instructions: 410000067 cycles: 194909686 heartbeat IPC: 1.452 cumulative IPC: 1.452 (Simulation time: 00 hr 42 min 37 sec)
Heartbeat CPU 0 instructions: 420000068 cycles: 201796470 heartbeat IPC: 1.452 cumulative IPC: 1.452 (Simulation time: 00 hr 43 min 52 sec)
Heartbeat CPU 0 instructions: 430000068 cycles: 208686842 heartbeat IPC: 1.451 cumulative IPC: 1.452 (Simulation time: 00 hr 45 min 07 sec)
Heartbeat CPU 0 instructions: 440000069 cycles: 215582637 heartbeat IPC: 1.45 cumulative IPC: 1.452 (Simulation time: 00 hr 46 min 20 sec)
Heartbeat CPU 0 instructions: 450000073 cycles: 222484724 heartbeat IPC: 1.449 cumulative IPC: 1.451 (Simulation time: 00 hr 47 min 34 sec)
Heartbeat CPU 0 instructions: 460000077 cycles: 229392925 heartbeat IPC: 1.448 cumulative IPC: 1.451 (Simulation time: 00 hr 48 min 47 sec)
Heartbeat CPU 0 instructions: 470000077 cycles: 236312068 heartbeat IPC: 1.445 cumulative IPC: 1.451 (Simulation time: 00 hr 50 min 01 sec)
Heartbeat CPU 0 instructions: 480000080 cycles: 243224938 heartbeat IPC: 1.447 cumulative IPC: 1.451 (Simulation time: 00 hr 51 min 14 sec)
Heartbeat CPU 0 instructions: 490000083 cycles: 250137515 heartbeat IPC: 1.447 cumulative IPC: 1.451 (Simulation time: 00 hr 52 min 28 sec)
Heartbeat CPU 0 instructions: 500000083 cycles: 257068361 heartbeat IPC: 1.443 cumulative IPC: 1.451 (Simulation time: 00 hr 53 min 41 sec)
Heartbeat CPU 0 instructions: 510000084 cycles: 264016358 heartbeat IPC: 1.439 cumulative IPC: 1.45 (Simulation time: 00 hr 54 min 55 sec)
Heartbeat CPU 0 instructions: 520000084 cycles: 270968276 heartbeat IPC: 1.438 cumulative IPC: 1.45 (Simulation time: 00 hr 56 min 08 sec)
Heartbeat CPU 0 instructions: 530000084 cycles: 277916658 heartbeat IPC: 1.439 cumulative IPC: 1.449 (Simulation time: 00 hr 57 min 22 sec)
Heartbeat CPU 0 instructions: 540000088 cycles: 284827812 heartbeat IPC: 1.447 cumulative IPC: 1.449 (Simulation time: 00 hr 58 min 35 sec)
Heartbeat CPU 0 instructions: 550000089 cycles: 291760822 heartbeat IPC: 1.442 cumulative IPC: 1.449 (Simulation time: 00 hr 59 min 49 sec)
Heartbeat CPU 0 instructions: 560000092 cycles: 298673550 heartbeat IPC: 1.447 cumulative IPC: 1.449 (Simulation time: 01 hr 01 min 02 sec)
Heartbeat CPU 0 instructions: 570000096 cycles: 305579243 heartbeat IPC: 1.448 cumulative IPC: 1.449 (Simulation time: 01 hr 02 min 15 sec)
Heartbeat CPU 0 instructions: 580000100 cycles: 312485041 heartbeat IPC: 1.448 cumulative IPC: 1.449 (Simulation time: 01 hr 03 min 29 sec)
Heartbeat CPU 0 instructions: 590000103 cycles: 319400088 heartbeat IPC: 1.446 cumulative IPC: 1.449 (Simulation time: 01 hr 04 min 42 sec)
Heartbeat CPU 0 instructions: 600000104 cycles: 326313261 heartbeat IPC: 1.447 cumulative IPC: 1.449 (Simulation time: 01 hr 05 min 55 sec)
Heartbeat CPU 0 instructions: 610000104 cycles: 333228420 heartbeat IPC: 1.446 cumulative IPC: 1.449 (Simulation time: 01 hr 07 min 09 sec)
Heartbeat CPU 0 instructions: 620000104 cycles: 340152576 heartbeat IPC: 1.444 cumulative IPC: 1.449 (Simulation time: 01 hr 08 min 22 sec)
Heartbeat CPU 0 instructions: 630000106 cycles: 347076359 heartbeat IPC: 1.444 cumulative IPC: 1.449 (Simulation time: 01 hr 09 min 36 sec)
Heartbeat CPU 0 instructions: 640000108 cycles: 353981850 heartbeat IPC: 1.448 cumulative IPC: 1.449 (Simulation time: 01 hr 10 min 49 sec)
Heartbeat CPU 0 instructions: 650000111 cycles: 360904059 heartbeat IPC: 1.445 cumulative IPC: 1.449 (Simulation time: 01 hr 12 min 02 sec)
Heartbeat CPU 0 instructions: 660000114 cycles: 367842969 heartbeat IPC: 1.441 cumulative IPC: 1.448 (Simulation time: 01 hr 13 min 16 sec)
Heartbeat CPU 0 instructions: 670000115 cycles: 374823068 heartbeat IPC: 1.433 cumulative IPC: 1.448 (Simulation time: 01 hr 14 min 31 sec)
Heartbeat CPU 0 instructions: 680000115 cycles: 381773484 heartbeat IPC: 1.439 cumulative IPC: 1.448 (Simulation time: 01 hr 15 min 46 sec)
Heartbeat CPU 0 instructions: 690000116 cycles: 388702138 heartbeat IPC: 1.443 cumulative IPC: 1.448 (Simulation time: 01 hr 16 min 59 sec)
Heartbeat CPU 0 instructions: 700000119 cycles: 395626781 heartbeat IPC: 1.444 cumulative IPC: 1.448 (Simulation time: 01 hr 18 min 13 sec)
Heartbeat CPU 0 instructions: 710000120 cycles: 402581853 heartbeat IPC: 1.438 cumulative IPC: 1.447 (Simulation time: 01 hr 19 min 27 sec)
Heartbeat CPU 0 instructions: 720000122 cycles: 409545773 heartbeat IPC: 1.436 cumulative IPC: 1.447 (Simulation time: 01 hr 20 min 41 sec)
Heartbeat CPU 0 instructions: 730000123 cycles: 416486163 heartbeat IPC: 1.441 cumulative IPC: 1.447 (Simulation time: 01 hr 21 min 55 sec)
Heartbeat CPU 0 instructions: 740000127 cycles: 423405941 heartbeat IPC: 1.445 cumulative IPC: 1.447 (Simulation time: 01 hr 23 min 08 sec)
Heartbeat CPU 0 instructions: 750000129 cycles: 430326327 heartbeat IPC: 1.445 cumulative IPC: 1.447 (Simulation time: 01 hr 24 min 21 sec)
Heartbeat CPU 0 instructions: 760000132 cycles: 437231650 heartbeat IPC: 1.448 cumulative IPC: 1.447 (Simulation time: 01 hr 25 min 35 sec)
Heartbeat CPU 0 instructions: 770000133 cycles: 444136518 heartbeat IPC: 1.448 cumulative IPC: 1.447 (Simulation time: 01 hr 26 min 48 sec)
Heartbeat CPU 0 instructions: 780000136 cycles: 451040887 heartbeat IPC: 1.448 cumulative IPC: 1.447 (Simulation time: 01 hr 28 min 02 sec)
Heartbeat CPU 0 instructions: 790000136 cycles: 457932011 heartbeat IPC: 1.451 cumulative IPC: 1.447 (Simulation time: 01 hr 29 min 15 sec)
Heartbeat CPU 0 instructions: 800000137 cycles: 464840157 heartbeat IPC: 1.448 cumulative IPC: 1.447 (Simulation time: 01 hr 30 min 28 sec)
Heartbeat CPU 0 instructions: 810000137 cycles: 471744159 heartbeat IPC: 1.448 cumulative IPC: 1.447 (Simulation time: 01 hr 31 min 41 sec)
Heartbeat CPU 0 instructions: 820000137 cycles: 478637048 heartbeat IPC: 1.451 cumulative IPC: 1.447 (Simulation time: 01 hr 32 min 55 sec)
Heartbeat CPU 0 instructions: 830000140 cycles: 485529344 heartbeat IPC: 1.451 cumulative IPC: 1.447 (Simulation time: 01 hr 34 min 08 sec)
Heartbeat CPU 0 instructions: 840000144 cycles: 492420405 heartbeat IPC: 1.451 cumulative IPC: 1.447 (Simulation time: 01 hr 35 min 21 sec)
Heartbeat CPU 0 instructions: 850000146 cycles: 499316040 heartbeat IPC: 1.45 cumulative IPC: 1.447 (Simulation time: 01 hr 36 min 35 sec)
Heartbeat CPU 0 instructions: 860000149 cycles: 506222241 heartbeat IPC: 1.448 cumulative IPC: 1.447 (Simulation time: 01 hr 37 min 48 sec)
Heartbeat CPU 0 instructions: 870000150 cycles: 513110109 heartbeat IPC: 1.452 cumulative IPC: 1.448 (Simulation time: 01 hr 39 min 02 sec)
Heartbeat CPU 0 instructions: 880000154 cycles: 520004776 heartbeat IPC: 1.45 cumulative IPC: 1.448 (Simulation time: 01 hr 40 min 16 sec)
Heartbeat CPU 0 instructions: 890000157 cycles: 526893212 heartbeat IPC: 1.452 cumulative IPC: 1.448 (Simulation time: 01 hr 41 min 29 sec)
Heartbeat CPU 0 instructions: 900000157 cycles: 533775199 heartbeat IPC: 1.453 cumulative IPC: 1.448 (Simulation time: 01 hr 42 min 43 sec)
Heartbeat CPU 0 instructions: 910000157 cycles: 540655810 heartbeat IPC: 1.453 cumulative IPC: 1.448 (Simulation time: 01 hr 43 min 56 sec)
Heartbeat CPU 0 instructions: 920000158 cycles: 547570477 heartbeat IPC: 1.446 cumulative IPC: 1.448 (Simulation time: 01 hr 45 min 09 sec)
Heartbeat CPU 0 instructions: 930000159 cycles: 554526152 heartbeat IPC: 1.438 cumulative IPC: 1.448 (Simulation time: 01 hr 46 min 22 sec)
Heartbeat CPU 0 instructions: 940000159 cycles: 561501832 heartbeat IPC: 1.434 cumulative IPC: 1.447 (Simulation time: 01 hr 47 min 36 sec)
Heartbeat CPU 0 instructions: 950000159 cycles: 568478291 heartbeat IPC: 1.433 cumulative IPC: 1.447 (Simulation time: 01 hr 48 min 50 sec)
Heartbeat CPU 0 instructions: 960000161 cycles: 575518734 heartbeat IPC: 1.42 cumulative IPC: 1.447 (Simulation time: 01 hr 50 min 06 sec)
Heartbeat CPU 0 instructions: 970000161 cycles: 582544208 heartbeat IPC: 1.423 cumulative IPC: 1.447 (Simulation time: 01 hr 51 min 21 sec)
Heartbeat CPU 0 instructions: 980000162 cycles: 589567345 heartbeat IPC: 1.424 cumulative IPC: 1.446 (Simulation time: 01 hr 52 min 36 sec)
Heartbeat CPU 0 instructions: 990000163 cycles: 596567866 heartbeat IPC: 1.428 cumulative IPC: 1.446 (Simulation time: 01 hr 53 min 50 sec)
Heartbeat CPU 0 instructions: 1000000164 cycles: 603556009 heartbeat IPC: 1.431 cumulative IPC: 1.446 (Simulation time: 01 hr 55 min 04 sec)
Heartbeat CPU 0 instructions: 1010000165 cycles: 610601958 heartbeat IPC: 1.419 cumulative IPC: 1.446 (Simulation time: 01 hr 56 min 19 sec)
Heartbeat CPU 0 instructions: 1020000166 cycles: 617672228 heartbeat IPC: 1.414 cumulative IPC: 1.445 (Simulation time: 01 hr 57 min 34 sec)
Heartbeat CPU 0 instructions: 1030000170 cycles: 624756787 heartbeat IPC: 1.412 cumulative IPC: 1.445 (Simulation time: 01 hr 58 min 49 sec)
Heartbeat CPU 0 instructions: 1040000170 cycles: 631862313 heartbeat IPC: 1.407 cumulative IPC: 1.444 (Simulation time: 02 hr 00 min 04 sec)
Heartbeat CPU 0 instructions: 1050000172 cycles: 638990410 heartbeat IPC: 1.403 cumulative IPC: 1.444 (Simulation time: 02 hr 01 min 19 sec)
Heartbeat CPU 0 instructions: 1060000172 cycles: 646110834 heartbeat IPC: 1.404 cumulative IPC: 1.443 (Simulation time: 02 hr 02 min 35 sec)
Heartbeat CPU 0 instructions: 1070000173 cycles: 653244285 heartbeat IPC: 1.402 cumulative IPC: 1.443 (Simulation time: 02 hr 03 min 51 sec)
Heartbeat CPU 0 instructions: 1080000177 cycles: 660378086 heartbeat IPC: 1.402 cumulative IPC: 1.442 (Simulation time: 02 hr 05 min 07 sec)
Heartbeat CPU 0 instructions: 1090000177 cycles: 667540871 heartbeat IPC: 1.396 cumulative IPC: 1.442 (Simulation time: 02 hr 06 min 22 sec)
Heartbeat CPU 0 instructions: 1100000177 cycles: 674698294 heartbeat IPC: 1.397 cumulative IPC: 1.441 (Simulation time: 02 hr 07 min 38 sec)
Heartbeat CPU 0 instructions: 1110000177 cycles: 681835232 heartbeat IPC: 1.401 cumulative IPC: 1.441 (Simulation time: 02 hr 08 min 54 sec)
Heartbeat CPU 0 instructions: 1120000178 cycles: 688940094 heartbeat IPC: 1.407 cumulative IPC: 1.44 (Simulation time: 02 hr 10 min 09 sec)
Heartbeat CPU 0 instructions: 1130000181 cycles: 695912649 heartbeat IPC: 1.434 cumulative IPC: 1.44 (Simulation time: 02 hr 11 min 23 sec)
Heartbeat CPU 0 instructions: 1140000184 cycles: 702888825 heartbeat IPC: 1.433 cumulative IPC: 1.44 (Simulation time: 02 hr 12 min 37 sec)
Heartbeat CPU 0 instructions: 1150000188 cycles: 709864781 heartbeat IPC: 1.433 cumulative IPC: 1.44 (Simulation time: 02 hr 13 min 50 sec)
Heartbeat CPU 0 instructions: 1160000189 cycles: 716799033 heartbeat IPC: 1.442 cumulative IPC: 1.44 (Simulation time: 02 hr 15 min 03 sec)
Heartbeat CPU 0 instructions: 1170000189 cycles: 723900633 heartbeat IPC: 1.408 cumulative IPC: 1.44 (Simulation time: 02 hr 16 min 17 sec)
Heartbeat CPU 0 instructions: 1180000189 cycles: 731058999 heartbeat IPC: 1.397 cumulative IPC: 1.439 (Simulation time: 02 hr 17 min 32 sec)
Heartbeat CPU 0 instructions: 1190000192 cycles: 738077782 heartbeat IPC: 1.425 cumulative IPC: 1.439 (Simulation time: 02 hr 18 min 46 sec)
Simulation finished CPU 0 instructions: 1000000003 cycles: 694835633 cumulative IPC: 1.439 (Simulation time: 02 hr 20 min 00 sec)
Simulation complete CPU 0 instructions: 1000000003 cycles: 694835633 cumulative IPC: 1.439 (Simulation time: 02 hr 20 min 00 sec)

ChampSim completed all CPUs

=== Simulation ===
CPU 0 runs /home/grads/r/raveena_manasi/ECEN_676/ChampSim/dpc3_traces/644.nab_s-5853B.champsimtrace.xz

Region of Interest Statistics

CPU 0 cumulative IPC: 1.439 instructions: 1000000003 cycles: 694835633
CPU 0 Branch Prediction Accuracy: 88.54% MPKI: 11.09 Average ROB Occupancy at Mispredict: 60.85
Branch type MPKI
BRANCH_DIRECT_JUMP: 0.000119
BRANCH_INDIRECT: 0
BRANCH_CONDITIONAL: 5.563
BRANCH_DIRECT_CALL: 1e-06
BRANCH_INDIRECT_CALL: 0
BRANCH_RETURN: 5.528

cpu0->cpu0_STLB TOTAL        ACCESS:    2230283 HIT:    2222494 MISS:       7789 MSHR_MERGE:          0
cpu0->cpu0_STLB LOAD         ACCESS:    2230283 HIT:    2222494 MISS:       7789 MSHR_MERGE:          0
cpu0->cpu0_STLB RFO          ACCESS:          0 HIT:          0 MISS:          0 MSHR_MERGE:          0
cpu0->cpu0_STLB PREFETCH     ACCESS:          0 HIT:          0 MISS:          0 MSHR_MERGE:          0
cpu0->cpu0_STLB WRITE        ACCESS:          0 HIT:          0 MISS:          0 MSHR_MERGE:          0
cpu0->cpu0_STLB TRANSLATION  ACCESS:          0 HIT:          0 MISS:          0 MSHR_MERGE:          0
cpu0->cpu0_STLB PREFETCH REQUESTED:          0 ISSUED:          0 USEFUL:          0 USELESS:          0
cpu0->cpu0_STLB AVERAGE MISS LATENCY: 275.8 cycles
cpu0->cpu0_L2C TOTAL        ACCESS:   22163049 HIT:   20071222 MISS:    2091827 MSHR_MERGE:       4140
cpu0->cpu0_L2C LOAD         ACCESS:    3908762 HIT:    3788437 MISS:     120325 MSHR_MERGE:         13
cpu0->cpu0_L2C RFO          ACCESS:      15043 HIT:      14536 MISS:        507 MSHR_MERGE:          0
cpu0->cpu0_L2C PREFETCH     ACCESS:   16882403 HIT:   14914627 MISS:    1967776 MSHR_MERGE:       4127
cpu0->cpu0_L2C WRITE        ACCESS:    1349094 HIT:    1349088 MISS:          6 MSHR_MERGE:          0
cpu0->cpu0_L2C TRANSLATION  ACCESS:       7747 HIT:       4534 MISS:       3213 MSHR_MERGE:          0
cpu0->cpu0_L2C PREFETCH REQUESTED:   16896604 ISSUED:   16882403 USEFUL:      78684 USELESS:       2051
cpu0->cpu0_L2C AVERAGE MISS LATENCY: 36.83 cycles
cpu0->cpu0_L1I TOTAL        ACCESS:      22247 HIT:      22245 MISS:          2 MSHR_MERGE:          0
cpu0->cpu0_L1I LOAD         ACCESS:      22247 HIT:      22245 MISS:          2 MSHR_MERGE:          0
cpu0->cpu0_L1I RFO          ACCESS:          0 HIT:          0 MISS:          0 MSHR_MERGE:          0
cpu0->cpu0_L1I PREFETCH     ACCESS:          0 HIT:          0 MISS:          0 MSHR_MERGE:          0
cpu0->cpu0_L1I WRITE        ACCESS:          0 HIT:          0 MISS:          0 MSHR_MERGE:          0
cpu0->cpu0_L1I TRANSLATION  ACCESS:          0 HIT:          0 MISS:          0 MSHR_MERGE:          0
cpu0->cpu0_L1I PREFETCH REQUESTED:          0 ISSUED:          0 USEFUL:          0 USELESS:          0
cpu0->cpu0_L1I AVERAGE MISS LATENCY: 164.5 cycles
cpu0->cpu0_L1D TOTAL        ACCESS:  328974219 HIT:  323510858 MISS:    5463361 MSHR_MERGE:    1531764
cpu0->cpu0_L1D LOAD         ACCESS:  218333423 HIT:  212931080 MISS:    5402343 MSHR_MERGE:    1493583
cpu0->cpu0_L1D RFO          ACCESS:          0 HIT:          0 MISS:          0 MSHR_MERGE:          0
cpu0->cpu0_L1D PREFETCH     ACCESS:          0 HIT:          0 MISS:          0 MSHR_MERGE:          0
cpu0->cpu0_L1D WRITE        ACCESS:  110632789 HIT:  110579518 MISS:      53271 MSHR_MERGE:      38181
cpu0->cpu0_L1D TRANSLATION  ACCESS:       8007 HIT:        260 MISS:       7747 MSHR_MERGE:          0
cpu0->cpu0_L1D PREFETCH REQUESTED:          0 ISSUED:          0 USEFUL:          0 USELESS:          0
cpu0->cpu0_L1D AVERAGE MISS LATENCY: 9.201 cycles
cpu0->cpu0_ITLB TOTAL        ACCESS:      18945 HIT:      18945 MISS:          0 MSHR_MERGE:          0
cpu0->cpu0_ITLB LOAD         ACCESS:      18945 HIT:      18945 MISS:          0 MSHR_MERGE:          0
cpu0->cpu0_ITLB RFO          ACCESS:          0 HIT:          0 MISS:          0 MSHR_MERGE:          0
cpu0->cpu0_ITLB PREFETCH     ACCESS:          0 HIT:          0 MISS:          0 MSHR_MERGE:          0
cpu0->cpu0_ITLB WRITE        ACCESS:          0 HIT:          0 MISS:          0 MSHR_MERGE:          0
cpu0->cpu0_ITLB TRANSLATION  ACCESS:          0 HIT:          0 MISS:          0 MSHR_MERGE:          0
cpu0->cpu0_ITLB PREFETCH REQUESTED:          0 ISSUED:          0 USEFUL:          0 USELESS:          0
cpu0->cpu0_ITLB AVERAGE MISS LATENCY: - cycles
cpu0->cpu0_DTLB TOTAL        ACCESS:  309331192 HIT:  306305596 MISS:    3025596 MSHR_MERGE:     795313
cpu0->cpu0_DTLB LOAD         ACCESS:  309331192 HIT:  306305596 MISS:    3025596 MSHR_MERGE:     795313
cpu0->cpu0_DTLB RFO          ACCESS:          0 HIT:          0 MISS:          0 MSHR_MERGE:          0
cpu0->cpu0_DTLB PREFETCH     ACCESS:          0 HIT:          0 MISS:          0 MSHR_MERGE:          0
cpu0->cpu0_DTLB WRITE        ACCESS:          0 HIT:          0 MISS:          0 MSHR_MERGE:          0
cpu0->cpu0_DTLB TRANSLATION  ACCESS:          0 HIT:          0 MISS:          0 MSHR_MERGE:          0
cpu0->cpu0_DTLB PREFETCH REQUESTED:          0 ISSUED:          0 USEFUL:          0 USELESS:          0
cpu0->cpu0_DTLB AVERAGE MISS LATENCY: 5.967 cycles
cpu0->LLC TOTAL        ACCESS:    2094627 HIT:    1800175 MISS:     294452 MSHR_MERGE:      71209
cpu0->LLC LOAD         ACCESS:     120312 HIT:     106021 MISS:      14291 MSHR_MERGE:         18
cpu0->LLC RFO          ACCESS:        507 HIT:        481 MISS:         26 MSHR_MERGE:          0
cpu0->LLC PREFETCH     ACCESS:    1963627 HIT:    1688293 MISS:     275334 MSHR_MERGE:      71191
cpu0->LLC WRITE        ACCESS:       6968 HIT:       4630 MISS:       2338 MSHR_MERGE:          0
cpu0->LLC TRANSLATION  ACCESS:       3213 HIT:        750 MISS:       2463 MSHR_MERGE:          0
cpu0->LLC PREFETCH REQUESTED:          0 ISSUED:          0 USEFUL:          0 USELESS:          0
cpu0->LLC AVERAGE MISS LATENCY: 141.8 cycles

DRAM Statistics

Channel 0 RQ ROW_BUFFER_HIT:         35
  ROW_BUFFER_MISS:     220870
  AVG DBUS CONGESTED CYCLE: 3.135
Channel 0 WQ ROW_BUFFER_HIT:         47
  ROW_BUFFER_MISS:       4706
  FULL:          0
Channel 0 REFRESHES ISSUED:      57903
