[VMEM] WARNING: physical memory size is smaller than virtual memory size.
WARNING: option --warmup_instructions is deprecated. Use --warmup-instructions instead.
WARNING: option --simulation_instructions is deprecated. Use --simulation-instructions instead.

*** ChampSim Multicore Out-of-Order Simulator ***
Warmup Instructions: 200000000
Simulation Instructions: 1000000000
Number of CPUs: 1
Page size: 4096

Initialize SIGNATURE TABLE
ST_SET: 1
ST_WAY: 256
ST_TAG_BIT: 16

Initialize PATTERN TABLE
PT_SET: 512
PT_WAY: 4
SIG_DELTA_BIT: 7
C_SIG_BIT: 4
C_DELTA_BIT: 4

Initialize PREFETCH FILTER
FILTER_SET: 1024
Off-chip DRAM Size: 16 GiB Channels: 1 Width: 64-bit Data Rate: 3205 MT/s
Heartbeat CPU 0 instructions: 10000001 cycles: 2514619 heartbeat IPC: 3.977 cumulative IPC: 3.977 (Simulation time: 00 hr 00 min 45 sec)
Heartbeat CPU 0 instructions: 20000002 cycles: 5030302 heartbeat IPC: 3.975 cumulative IPC: 3.976 (Simulation time: 00 hr 01 min 32 sec)
Heartbeat CPU 0 instructions: 30000004 cycles: 7537035 heartbeat IPC: 3.989 cumulative IPC: 3.98 (Simulation time: 00 hr 02 min 19 sec)
Heartbeat CPU 0 instructions: 40000004 cycles: 10051627 heartbeat IPC: 3.977 cumulative IPC: 3.979 (Simulation time: 00 hr 03 min 06 sec)
Heartbeat CPU 0 instructions: 50000004 cycles: 12576678 heartbeat IPC: 3.96 cumulative IPC: 3.976 (Simulation time: 00 hr 03 min 54 sec)
Heartbeat CPU 0 instructions: 60000007 cycles: 15082762 heartbeat IPC: 3.99 cumulative IPC: 3.978 (Simulation time: 00 hr 04 min 39 sec)
Heartbeat CPU 0 instructions: 70000007 cycles: 17586978 heartbeat IPC: 3.993 cumulative IPC: 3.98 (Simulation time: 00 hr 05 min 24 sec)
Heartbeat CPU 0 instructions: 80000007 cycles: 20090631 heartbeat IPC: 3.994 cumulative IPC: 3.982 (Simulation time: 00 hr 06 min 09 sec)
Heartbeat CPU 0 instructions: 90000010 cycles: 22598777 heartbeat IPC: 3.987 cumulative IPC: 3.983 (Simulation time: 00 hr 06 min 57 sec)
Heartbeat CPU 0 instructions: 100000012 cycles: 25104433 heartbeat IPC: 3.991 cumulative IPC: 3.983 (Simulation time: 00 hr 07 min 42 sec)
Heartbeat CPU 0 instructions: 110000015 cycles: 27624373 heartbeat IPC: 3.968 cumulative IPC: 3.982 (Simulation time: 00 hr 08 min 29 sec)
Heartbeat CPU 0 instructions: 120000016 cycles: 30132735 heartbeat IPC: 3.987 cumulative IPC: 3.982 (Simulation time: 00 hr 09 min 14 sec)
Heartbeat CPU 0 instructions: 130000018 cycles: 32635566 heartbeat IPC: 3.995 cumulative IPC: 3.983 (Simulation time: 00 hr 09 min 58 sec)
Heartbeat CPU 0 instructions: 140000018 cycles: 35152541 heartbeat IPC: 3.973 cumulative IPC: 3.983 (Simulation time: 00 hr 10 min 43 sec)
Heartbeat CPU 0 instructions: 150000018 cycles: 37669510 heartbeat IPC: 3.973 cumulative IPC: 3.982 (Simulation time: 00 hr 11 min 28 sec)
Heartbeat CPU 0 instructions: 160000019 cycles: 40176707 heartbeat IPC: 3.989 cumulative IPC: 3.982 (Simulation time: 00 hr 12 min 12 sec)
Heartbeat CPU 0 instructions: 170000020 cycles: 42689443 heartbeat IPC: 3.98 cumulative IPC: 3.982 (Simulation time: 00 hr 12 min 57 sec)
Heartbeat CPU 0 instructions: 180000020 cycles: 45212060 heartbeat IPC: 3.964 cumulative IPC: 3.981 (Simulation time: 00 hr 13 min 42 sec)
Heartbeat CPU 0 instructions: 190000020 cycles: 47729085 heartbeat IPC: 3.973 cumulative IPC: 3.981 (Simulation time: 00 hr 14 min 27 sec)
Warmup finished CPU 0 instructions: 200000003 cycles: 50240587 cumulative IPC: 3.981 (Simulation time: 00 hr 15 min 13 sec)
Warmup complete CPU 0 instructions: 200000003 cycles: 50240587 cumulative IPC: 3.981 (Simulation time: 00 hr 15 min 13 sec)
Heartbeat CPU 0 instructions: 200000023 cycles: 50240592 heartbeat IPC: 3.982 cumulative IPC: 4 (Simulation time: 00 hr 15 min 13 sec)
Heartbeat CPU 0 instructions: 210000024 cycles: 54318265 heartbeat IPC: 2.452 cumulative IPC: 2.452 (Simulation time: 00 hr 16 min 06 sec)
Heartbeat CPU 0 instructions: 220000024 cycles: 58819565 heartbeat IPC: 2.222 cumulative IPC: 2.331 (Simulation time: 00 hr 17 min 02 sec)
Heartbeat CPU 0 instructions: 230000026 cycles: 62850776 heartbeat IPC: 2.481 cumulative IPC: 2.379 (Simulation time: 00 hr 17 min 54 sec)
Heartbeat CPU 0 instructions: 240000026 cycles: 67310062 heartbeat IPC: 2.243 cumulative IPC: 2.343 (Simulation time: 00 hr 18 min 49 sec)
Heartbeat CPU 0 instructions: 250000029 cycles: 71711923 heartbeat IPC: 2.272 cumulative IPC: 2.329 (Simulation time: 00 hr 19 min 44 sec)
Heartbeat CPU 0 instructions: 260000032 cycles: 75873094 heartbeat IPC: 2.403 cumulative IPC: 2.341 (Simulation time: 00 hr 20 min 39 sec)
Heartbeat CPU 0 instructions: 270000032 cycles: 80273239 heartbeat IPC: 2.273 cumulative IPC: 2.331 (Simulation time: 00 hr 21 min 34 sec)
Heartbeat CPU 0 instructions: 280000035 cycles: 84517571 heartbeat IPC: 2.356 cumulative IPC: 2.334 (Simulation time: 00 hr 22 min 27 sec)
Heartbeat CPU 0 instructions: 290000036 cycles: 88534816 heartbeat IPC: 2.489 cumulative IPC: 2.35 (Simulation time: 00 hr 23 min 19 sec)
Heartbeat CPU 0 instructions: 300000040 cycles: 92695537 heartbeat IPC: 2.403 cumulative IPC: 2.355 (Simulation time: 00 hr 24 min 13 sec)
Heartbeat CPU 0 instructions: 310000043 cycles: 96664557 heartbeat IPC: 2.52 cumulative IPC: 2.369 (Simulation time: 00 hr 25 min 04 sec)
Heartbeat CPU 0 instructions: 320000046 cycles: 100632580 heartbeat IPC: 2.52 cumulative IPC: 2.381 (Simulation time: 00 hr 25 min 56 sec)
Heartbeat CPU 0 instructions: 330000049 cycles: 104601283 heartbeat IPC: 2.52 cumulative IPC: 2.391 (Simulation time: 00 hr 26 min 48 sec)
Heartbeat CPU 0 instructions: 340000050 cycles: 108761159 heartbeat IPC: 2.404 cumulative IPC: 2.392 (Simulation time: 00 hr 27 min 41 sec)
Heartbeat CPU 0 instructions: 350000051 cycles: 112789963 heartbeat IPC: 2.482 cumulative IPC: 2.398 (Simulation time: 00 hr 28 min 34 sec)
Heartbeat CPU 0 instructions: 360000052 cycles: 116853632 heartbeat IPC: 2.461 cumulative IPC: 2.402 (Simulation time: 00 hr 29 min 27 sec)
Heartbeat CPU 0 instructions: 370000055 cycles: 120959093 heartbeat IPC: 2.436 cumulative IPC: 2.404 (Simulation time: 00 hr 30 min 18 sec)
Heartbeat CPU 0 instructions: 380000057 cycles: 126188711 heartbeat IPC: 1.912 cumulative IPC: 2.37 (Simulation time: 00 hr 31 min 18 sec)
Heartbeat CPU 0 instructions: 390000059 cycles: 130654005 heartbeat IPC: 2.239 cumulative IPC: 2.363 (Simulation time: 00 hr 32 min 12 sec)
Heartbeat CPU 0 instructions: 400000062 cycles: 134767380 heartbeat IPC: 2.431 cumulative IPC: 2.366 (Simulation time: 00 hr 33 min 05 sec)
Heartbeat CPU 0 instructions: 410000064 cycles: 138831477 heartbeat IPC: 2.461 cumulative IPC: 2.37 (Simulation time: 00 hr 33 min 58 sec)
Heartbeat CPU 0 instructions: 420000066 cycles: 142847316 heartbeat IPC: 2.49 cumulative IPC: 2.376 (Simulation time: 00 hr 34 min 51 sec)
Heartbeat CPU 0 instructions: 430000069 cycles: 147768808 heartbeat IPC: 2.032 cumulative IPC: 2.358 (Simulation time: 00 hr 35 min 52 sec)
Heartbeat CPU 0 instructions: 440000072 cycles: 152361503 heartbeat IPC: 2.177 cumulative IPC: 2.35 (Simulation time: 00 hr 36 min 52 sec)
Heartbeat CPU 0 instructions: 450000075 cycles: 158409753 heartbeat IPC: 1.653 cumulative IPC: 2.311 (Simulation time: 00 hr 38 min 02 sec)
Heartbeat CPU 0 instructions: 460000079 cycles: 162483638 heartbeat IPC: 2.455 cumulative IPC: 2.316 (Simulation time: 00 hr 38 min 55 sec)
Heartbeat CPU 0 instructions: 470000080 cycles: 166597614 heartbeat IPC: 2.431 cumulative IPC: 2.32 (Simulation time: 00 hr 39 min 48 sec)
Heartbeat CPU 0 instructions: 480000080 cycles: 170816579 heartbeat IPC: 2.37 cumulative IPC: 2.322 (Simulation time: 00 hr 40 min 41 sec)
Heartbeat CPU 0 instructions: 490000081 cycles: 181832121 heartbeat IPC: 0.9078 cumulative IPC: 2.204 (Simulation time: 00 hr 42 min 59 sec)
Heartbeat CPU 0 instructions: 500000084 cycles: 188826949 heartbeat IPC: 1.43 cumulative IPC: 2.165 (Simulation time: 00 hr 44 min 13 sec)
Heartbeat CPU 0 instructions: 510000086 cycles: 195836058 heartbeat IPC: 1.427 cumulative IPC: 2.129 (Simulation time: 00 hr 45 min 27 sec)
Heartbeat CPU 0 instructions: 520000088 cycles: 202820578 heartbeat IPC: 1.432 cumulative IPC: 2.097 (Simulation time: 00 hr 46 min 42 sec)
Heartbeat CPU 0 instructions: 530000088 cycles: 209816792 heartbeat IPC: 1.429 cumulative IPC: 2.068 (Simulation time: 00 hr 47 min 56 sec)
Heartbeat CPU 0 instructions: 540000092 cycles: 216809718 heartbeat IPC: 1.43 cumulative IPC: 2.041 (Simulation time: 00 hr 49 min 10 sec)
Heartbeat CPU 0 instructions: 550000094 cycles: 223797389 heartbeat IPC: 1.431 cumulative IPC: 2.017 (Simulation time: 00 hr 50 min 24 sec)
Heartbeat CPU 0 instructions: 560000094 cycles: 231641900 heartbeat IPC: 1.275 cumulative IPC: 1.985 (Simulation time: 00 hr 51 min 49 sec)
Heartbeat CPU 0 instructions: 570000094 cycles: 242698127 heartbeat IPC: 0.9045 cumulative IPC: 1.923 (Simulation time: 00 hr 54 min 07 sec)
Heartbeat CPU 0 instructions: 580000094 cycles: 249695356 heartbeat IPC: 1.429 cumulative IPC: 1.905 (Simulation time: 00 hr 55 min 26 sec)
Heartbeat CPU 0 instructions: 590000094 cycles: 256691310 heartbeat IPC: 1.429 cumulative IPC: 1.889 (Simulation time: 00 hr 56 min 42 sec)
Heartbeat CPU 0 instructions: 600000096 cycles: 263673239 heartbeat IPC: 1.432 cumulative IPC: 1.874 (Simulation time: 00 hr 57 min 58 sec)
Heartbeat CPU 0 instructions: 610000098 cycles: 270679542 heartbeat IPC: 1.427 cumulative IPC: 1.86 (Simulation time: 00 hr 59 min 11 sec)
Heartbeat CPU 0 instructions: 620000098 cycles: 277658229 heartbeat IPC: 1.433 cumulative IPC: 1.847 (Simulation time: 01 hr 00 min 24 sec)
Heartbeat CPU 0 instructions: 630000102 cycles: 284663108 heartbeat IPC: 1.428 cumulative IPC: 1.834 (Simulation time: 01 hr 01 min 36 sec)
Heartbeat CPU 0 instructions: 640000104 cycles: 296461769 heartbeat IPC: 0.8476 cumulative IPC: 1.787 (Simulation time: 01 hr 04 min 01 sec)
Heartbeat CPU 0 instructions: 650000106 cycles: 303453899 heartbeat IPC: 1.43 cumulative IPC: 1.777 (Simulation time: 01 hr 05 min 16 sec)
Heartbeat CPU 0 instructions: 660000106 cycles: 310461709 heartbeat IPC: 1.427 cumulative IPC: 1.768 (Simulation time: 01 hr 06 min 29 sec)
Heartbeat CPU 0 instructions: 670000108 cycles: 317443124 heartbeat IPC: 1.432 cumulative IPC: 1.759 (Simulation time: 01 hr 07 min 45 sec)
Heartbeat CPU 0 instructions: 680000110 cycles: 324442968 heartbeat IPC: 1.429 cumulative IPC: 1.751 (Simulation time: 01 hr 09 min 05 sec)
Heartbeat CPU 0 instructions: 690000110 cycles: 331430337 heartbeat IPC: 1.431 cumulative IPC: 1.743 (Simulation time: 01 hr 10 min 19 sec)
Heartbeat CPU 0 instructions: 700000110 cycles: 338422497 heartbeat IPC: 1.43 cumulative IPC: 1.735 (Simulation time: 01 hr 11 min 33 sec)
Heartbeat CPU 0 instructions: 710000110 cycles: 349450241 heartbeat IPC: 0.9068 cumulative IPC: 1.704 (Simulation time: 01 hr 13 min 42 sec)
Heartbeat CPU 0 instructions: 720000110 cycles: 357231620 heartbeat IPC: 1.285 cumulative IPC: 1.694 (Simulation time: 01 hr 15 min 07 sec)
Heartbeat CPU 0 instructions: 730000114 cycles: 364233044 heartbeat IPC: 1.428 cumulative IPC: 1.688 (Simulation time: 01 hr 16 min 19 sec)
Heartbeat CPU 0 instructions: 740000116 cycles: 371223425 heartbeat IPC: 1.431 cumulative IPC: 1.682 (Simulation time: 01 hr 17 min 32 sec)
Heartbeat CPU 0 instructions: 750000116 cycles: 378214168 heartbeat IPC: 1.43 cumulative IPC: 1.677 (Simulation time: 01 hr 18 min 44 sec)
Heartbeat CPU 0 instructions: 760000116 cycles: 385216345 heartbeat IPC: 1.428 cumulative IPC: 1.672 (Simulation time: 01 hr 19 min 56 sec)
Heartbeat CPU 0 instructions: 770000116 cycles: 392195217 heartbeat IPC: 1.433 cumulative IPC: 1.667 (Simulation time: 01 hr 21 min 09 sec)
Heartbeat CPU 0 instructions: 780000118 cycles: 399205859 heartbeat IPC: 1.426 cumulative IPC: 1.662 (Simulation time: 01 hr 22 min 21 sec)
Heartbeat CPU 0 instructions: 790000118 cycles: 410986455 heartbeat IPC: 0.8489 cumulative IPC: 1.636 (Simulation time: 01 hr 24 min 49 sec)
Heartbeat CPU 0 instructions: 800000118 cycles: 417981980 heartbeat IPC: 1.429 cumulative IPC: 1.632 (Simulation time: 01 hr 26 min 02 sec)
Heartbeat CPU 0 instructions: 810000122 cycles: 424981676 heartbeat IPC: 1.429 cumulative IPC: 1.628 (Simulation time: 01 hr 27 min 15 sec)
Heartbeat CPU 0 instructions: 820000124 cycles: 431964619 heartbeat IPC: 1.432 cumulative IPC: 1.624 (Simulation time: 01 hr 28 min 27 sec)
Heartbeat CPU 0 instructions: 830000126 cycles: 438970225 heartbeat IPC: 1.427 cumulative IPC: 1.621 (Simulation time: 01 hr 29 min 39 sec)
Heartbeat CPU 0 instructions: 840000128 cycles: 445956199 heartbeat IPC: 1.431 cumulative IPC: 1.617 (Simulation time: 01 hr 30 min 51 sec)
Heartbeat CPU 0 instructions: 850000128 cycles: 452953320 heartbeat IPC: 1.429 cumulative IPC: 1.614 (Simulation time: 01 hr 32 min 02 sec)
Heartbeat CPU 0 instructions: 860000129 cycles: 464728448 heartbeat IPC: 0.8492 cumulative IPC: 1.592 (Simulation time: 01 hr 34 min 24 sec)
Heartbeat CPU 0 instructions: 870000131 cycles: 471716850 heartbeat IPC: 1.431 cumulative IPC: 1.59 (Simulation time: 01 hr 35 min 33 sec)
Heartbeat CPU 0 instructions: 880000131 cycles: 478722194 heartbeat IPC: 1.427 cumulative IPC: 1.587 (Simulation time: 01 hr 36 min 43 sec)
Heartbeat CPU 0 instructions: 890000133 cycles: 485708518 heartbeat IPC: 1.431 cumulative IPC: 1.585 (Simulation time: 01 hr 37 min 53 sec)
Heartbeat CPU 0 instructions: 900000135 cycles: 492703222 heartbeat IPC: 1.43 cumulative IPC: 1.582 (Simulation time: 01 hr 39 min 06 sec)
Heartbeat CPU 0 instructions: 910000139 cycles: 499697673 heartbeat IPC: 1.43 cumulative IPC: 1.58 (Simulation time: 01 hr 40 min 23 sec)
Heartbeat CPU 0 instructions: 920000140 cycles: 506682535 heartbeat IPC: 1.432 cumulative IPC: 1.577 (Simulation time: 01 hr 41 min 37 sec)
Heartbeat CPU 0 instructions: 930000142 cycles: 513691676 heartbeat IPC: 1.427 cumulative IPC: 1.575 (Simulation time: 01 hr 42 min 50 sec)
Heartbeat CPU 0 instructions: 940000142 cycles: 525519536 heartbeat IPC: 0.8455 cumulative IPC: 1.557 (Simulation time: 01 hr 45 min 13 sec)
Heartbeat CPU 0 instructions: 950000145 cycles: 532520700 heartbeat IPC: 1.428 cumulative IPC: 1.555 (Simulation time: 01 hr 46 min 28 sec)
Heartbeat CPU 0 instructions: 960000148 cycles: 539518115 heartbeat IPC: 1.429 cumulative IPC: 1.553 (Simulation time: 01 hr 47 min 40 sec)
Heartbeat CPU 0 instructions: 970000150 cycles: 546498086 heartbeat IPC: 1.433 cumulative IPC: 1.552 (Simulation time: 01 hr 48 min 54 sec)
Heartbeat CPU 0 instructions: 980000152 cycles: 553508227 heartbeat IPC: 1.427 cumulative IPC: 1.55 (Simulation time: 01 hr 50 min 09 sec)
Heartbeat CPU 0 instructions: 990000152 cycles: 560491259 heartbeat IPC: 1.432 cumulative IPC: 1.548 (Simulation time: 01 hr 51 min 24 sec)
Heartbeat CPU 0 instructions: 1000000153 cycles: 567489642 heartbeat IPC: 1.429 cumulative IPC: 1.547 (Simulation time: 01 hr 52 min 38 sec)
Heartbeat CPU 0 instructions: 1010000156 cycles: 579298028 heartbeat IPC: 0.8469 cumulative IPC: 1.531 (Simulation time: 01 hr 55 min 03 sec)
Heartbeat CPU 0 instructions: 1020000158 cycles: 586287153 heartbeat IPC: 1.431 cumulative IPC: 1.53 (Simulation time: 01 hr 56 min 16 sec)
Heartbeat CPU 0 instructions: 1030000160 cycles: 593296327 heartbeat IPC: 1.427 cumulative IPC: 1.528 (Simulation time: 01 hr 57 min 29 sec)
Heartbeat CPU 0 instructions: 1040000164 cycles: 600275592 heartbeat IPC: 1.433 cumulative IPC: 1.527 (Simulation time: 01 hr 58 min 42 sec)
Heartbeat CPU 0 instructions: 1050000164 cycles: 607275396 heartbeat IPC: 1.429 cumulative IPC: 1.526 (Simulation time: 01 hr 59 min 56 sec)
Heartbeat CPU 0 instructions: 1060000165 cycles: 614269524 heartbeat IPC: 1.43 cumulative IPC: 1.525 (Simulation time: 02 hr 01 min 12 sec)
Heartbeat CPU 0 instructions: 1070000167 cycles: 621257052 heartbeat IPC: 1.431 cumulative IPC: 1.524 (Simulation time: 02 hr 02 min 25 sec)
Heartbeat CPU 0 instructions: 1080000167 cycles: 630925864 heartbeat IPC: 1.034 cumulative IPC: 1.515 (Simulation time: 02 hr 04 min 12 sec)
Heartbeat CPU 0 instructions: 1090000167 cycles: 640067818 heartbeat IPC: 1.094 cumulative IPC: 1.509 (Simulation time: 02 hr 06 min 02 sec)
Heartbeat CPU 0 instructions: 1100000167 cycles: 647068171 heartbeat IPC: 1.428 cumulative IPC: 1.508 (Simulation time: 02 hr 07 min 16 sec)
Heartbeat CPU 0 instructions: 1110000168 cycles: 654063075 heartbeat IPC: 1.43 cumulative IPC: 1.507 (Simulation time: 02 hr 08 min 29 sec)
Heartbeat CPU 0 instructions: 1120000172 cycles: 661047521 heartbeat IPC: 1.432 cumulative IPC: 1.506 (Simulation time: 02 hr 09 min 42 sec)
Heartbeat CPU 0 instructions: 1130000172 cycles: 668052661 heartbeat IPC: 1.428 cumulative IPC: 1.505 (Simulation time: 02 hr 10 min 55 sec)
Heartbeat CPU 0 instructions: 1140000176 cycles: 675033063 heartbeat IPC: 1.433 cumulative IPC: 1.504 (Simulation time: 02 hr 12 min 08 sec)
Heartbeat CPU 0 instructions: 1150000177 cycles: 682039735 heartbeat IPC: 1.427 cumulative IPC: 1.504 (Simulation time: 02 hr 13 min 21 sec)
Heartbeat CPU 0 instructions: 1160000177 cycles: 693874594 heartbeat IPC: 0.845 cumulative IPC: 1.492 (Simulation time: 02 hr 15 min 51 sec)
Heartbeat CPU 0 instructions: 1170000177 cycles: 700867664 heartbeat IPC: 1.43 cumulative IPC: 1.491 (Simulation time: 02 hr 17 min 05 sec)
Heartbeat CPU 0 instructions: 1180000177 cycles: 707873686 heartbeat IPC: 1.427 cumulative IPC: 1.49 (Simulation time: 02 hr 18 min 19 sec)
Heartbeat CPU 0 instructions: 1190000180 cycles: 714851230 heartbeat IPC: 1.433 cumulative IPC: 1.49 (Simulation time: 02 hr 19 min 32 sec)
Simulation finished CPU 0 instructions: 1000000000 cycles: 671611092 cumulative IPC: 1.489 (Simulation time: 02 hr 20 min 45 sec)
Simulation complete CPU 0 instructions: 1000000000 cycles: 671611092 cumulative IPC: 1.489 (Simulation time: 02 hr 20 min 45 sec)

ChampSim completed all CPUs

=== Simulation ===
CPU 0 runs /home/grads/r/raveena_manasi/ECEN_676/ChampSim/dpc3_traces/654.roms_s-842B.champsimtrace.xz

Region of Interest Statistics

CPU 0 cumulative IPC: 1.489 instructions: 1000000000 cycles: 671611092
CPU 0 Branch Prediction Accuracy: 90.04% MPKI: 11.98 Average ROB Occupancy at Mispredict: 51.47
Branch type MPKI
BRANCH_DIRECT_JUMP: 0.04454
BRANCH_INDIRECT: 0
BRANCH_CONDITIONAL: 6.563
BRANCH_DIRECT_CALL: 8e-06
BRANCH_INDIRECT_CALL: 0
BRANCH_RETURN: 5.373

cpu0->cpu0_STLB TOTAL        ACCESS:      54994 HIT:       4596 MISS:      50398 MSHR_MERGE:          0
cpu0->cpu0_STLB LOAD         ACCESS:      54994 HIT:       4596 MISS:      50398 MSHR_MERGE:          0
cpu0->cpu0_STLB RFO          ACCESS:          0 HIT:          0 MISS:          0 MSHR_MERGE:          0
cpu0->cpu0_STLB PREFETCH     ACCESS:          0 HIT:          0 MISS:          0 MSHR_MERGE:          0
cpu0->cpu0_STLB WRITE        ACCESS:          0 HIT:          0 MISS:          0 MSHR_MERGE:          0
cpu0->cpu0_STLB TRANSLATION  ACCESS:          0 HIT:          0 MISS:          0 MSHR_MERGE:          0
cpu0->cpu0_STLB PREFETCH REQUESTED:          0 ISSUED:          0 USEFUL:          0 USELESS:          0
cpu0->cpu0_STLB AVERAGE MISS LATENCY: 127.2 cycles
cpu0->cpu0_L2C TOTAL        ACCESS:   20590082 HIT:    1933669 MISS:   18656413 MSHR_MERGE:     161997
cpu0->cpu0_L2C LOAD         ACCESS:    1502828 HIT:     931981 MISS:     570847 MSHR_MERGE:     129085
cpu0->cpu0_L2C RFO          ACCESS:    1001208 HIT:       1947 MISS:     999261 MSHR_MERGE:          0
cpu0->cpu0_L2C PREFETCH     ACCESS:   17074423 HIT:        269 MISS:   17074154 MSHR_MERGE:      32912
cpu0->cpu0_L2C WRITE        ACCESS:    1001314 HIT:     999305 MISS:       2009 MSHR_MERGE:          0
cpu0->cpu0_L2C TRANSLATION  ACCESS:      10309 HIT:        167 MISS:      10142 MSHR_MERGE:          0
cpu0->cpu0_L2C PREFETCH REQUESTED:   19287541 ISSUED:   17074423 USEFUL:    1060914 USELESS:      11240
cpu0->cpu0_L2C AVERAGE MISS LATENCY: 222.1 cycles
cpu0->cpu0_L1I TOTAL        ACCESS:   18623112 HIT:   18623015 MISS:         97 MSHR_MERGE:         26
cpu0->cpu0_L1I LOAD         ACCESS:   18623112 HIT:   18623015 MISS:         97 MSHR_MERGE:         26
cpu0->cpu0_L1I RFO          ACCESS:          0 HIT:          0 MISS:          0 MSHR_MERGE:          0
cpu0->cpu0_L1I PREFETCH     ACCESS:          0 HIT:          0 MISS:          0 MSHR_MERGE:          0
cpu0->cpu0_L1I WRITE        ACCESS:          0 HIT:          0 MISS:          0 MSHR_MERGE:          0
cpu0->cpu0_L1I TRANSLATION  ACCESS:          0 HIT:          0 MISS:          0 MSHR_MERGE:          0
cpu0->cpu0_L1I PREFETCH REQUESTED:          0 ISSUED:          0 USEFUL:          0 USELESS:          0
cpu0->cpu0_L1I AVERAGE MISS LATENCY: 164.4 cycles
cpu0->cpu0_L1D TOTAL        ACCESS:  239106163 HIT:  230047388 MISS:    9058775 MSHR_MERGE:    6544496
cpu0->cpu0_L1D LOAD         ACCESS:  144671957 HIT:  141232214 MISS:    3439743 MSHR_MERGE:    1936986
cpu0->cpu0_L1D RFO          ACCESS:          0 HIT:          0 MISS:          0 MSHR_MERGE:          0
cpu0->cpu0_L1D PREFETCH     ACCESS:          0 HIT:          0 MISS:          0 MSHR_MERGE:          0
cpu0->cpu0_L1D WRITE        ACCESS:   94383738 HIT:   88775015 MISS:    5608723 MSHR_MERGE:    4607510
cpu0->cpu0_L1D TRANSLATION  ACCESS:      50468 HIT:      40159 MISS:      10309 MSHR_MERGE:          0
cpu0->cpu0_L1D PREFETCH REQUESTED:          0 ISSUED:          0 USEFUL:          0 USELESS:          0
cpu0->cpu0_L1D AVERAGE MISS LATENCY: 148.4 cycles
cpu0->cpu0_ITLB TOTAL        ACCESS:   17102395 HIT:   17102385 MISS:         10 MSHR_MERGE:          3
cpu0->cpu0_ITLB LOAD         ACCESS:   17102395 HIT:   17102385 MISS:         10 MSHR_MERGE:          3
cpu0->cpu0_ITLB RFO          ACCESS:          0 HIT:          0 MISS:          0 MSHR_MERGE:          0
cpu0->cpu0_ITLB PREFETCH     ACCESS:          0 HIT:          0 MISS:          0 MSHR_MERGE:          0
cpu0->cpu0_ITLB WRITE        ACCESS:          0 HIT:          0 MISS:          0 MSHR_MERGE:          0
cpu0->cpu0_ITLB TRANSLATION  ACCESS:          0 HIT:          0 MISS:          0 MSHR_MERGE:          0
cpu0->cpu0_ITLB PREFETCH REQUESTED:          0 ISSUED:          0 USEFUL:          0 USELESS:          0
cpu0->cpu0_ITLB AVERAGE MISS LATENCY: 441.4 cycles
cpu0->cpu0_DTLB TOTAL        ACCESS:  227611944 HIT:  227366001 MISS:     245943 MSHR_MERGE:     190956
cpu0->cpu0_DTLB LOAD         ACCESS:  227611944 HIT:  227366001 MISS:     245943 MSHR_MERGE:     190956
cpu0->cpu0_DTLB RFO          ACCESS:          0 HIT:          0 MISS:          0 MSHR_MERGE:          0
cpu0->cpu0_DTLB PREFETCH     ACCESS:          0 HIT:          0 MISS:          0 MSHR_MERGE:          0
cpu0->cpu0_DTLB WRITE        ACCESS:          0 HIT:          0 MISS:          0 MSHR_MERGE:          0
cpu0->cpu0_DTLB TRANSLATION  ACCESS:          0 HIT:          0 MISS:          0 MSHR_MERGE:          0
cpu0->cpu0_DTLB PREFETCH REQUESTED:          0 ISSUED:          0 USEFUL:          0 USELESS:          0
cpu0->cpu0_DTLB AVERAGE MISS LATENCY: 122.5 cycles
cpu0->LLC TOTAL        ACCESS:   19403322 HIT:   10522705 MISS:    8880617 MSHR_MERGE:    6263962
cpu0->LLC LOAD         ACCESS:     441762 HIT:     332067 MISS:     109695 MSHR_MERGE:      24984
cpu0->LLC RFO          ACCESS:     999261 HIT:         38 MISS:     999223 MSHR_MERGE:          0
cpu0->LLC PREFETCH     ACCESS:   16952882 HIT:    9190818 MISS:    7762064 MSHR_MERGE:    6238978
cpu0->LLC WRITE        ACCESS:     999275 HIT:     997219 MISS:       2056 MSHR_MERGE:          0
cpu0->LLC TRANSLATION  ACCESS:      10142 HIT:       2563 MISS:       7579 MSHR_MERGE:          0
cpu0->LLC PREFETCH REQUESTED:          0 ISSUED:          0 USEFUL:          0 USELESS:          0
cpu0->LLC AVERAGE MISS LATENCY: 281.3 cycles

DRAM Statistics

Channel 0 RQ ROW_BUFFER_HIT:      42523
  ROW_BUFFER_MISS:    2572075
  AVG DBUS CONGESTED CYCLE: 9.667
Channel 0 WQ ROW_BUFFER_HIT:     182513
  ROW_BUFFER_MISS:     815790
  FULL:          0
Channel 0 REFRESHES ISSUED:      55968
