[VMEM] WARNING: physical memory size is smaller than virtual memory size.
WARNING: option --warmup_instructions is deprecated. Use --warmup-instructions instead.
WARNING: option --simulation_instructions is deprecated. Use --simulation-instructions instead.

*** ChampSim Multicore Out-of-Order Simulator ***
Warmup Instructions: 200000000
Simulation Instructions: 1000000000
Number of CPUs: 1
Page size: 4096

Initialize SIGNATURE TABLE
ST_SET: 1
ST_WAY: 256
ST_TAG_BIT: 16

Initialize PATTERN TABLE
PT_SET: 512
PT_WAY: 4
SIG_DELTA_BIT: 7
C_SIG_BIT: 4
C_DELTA_BIT: 4

Initialize PREFETCH FILTER
FILTER_SET: 1024
Off-chip DRAM Size: 16 GiB Channels: 1 Width: 64-bit Data Rate: 3205 MT/s
Heartbeat CPU 0 instructions: 10000002 cycles: 2883255 heartbeat IPC: 3.468 cumulative IPC: 3.468 (Simulation time: 00 hr 00 min 56 sec)
Heartbeat CPU 0 instructions: 20000002 cycles: 5734694 heartbeat IPC: 3.507 cumulative IPC: 3.488 (Simulation time: 00 hr 01 min 51 sec)
Heartbeat CPU 0 instructions: 30000006 cycles: 8577712 heartbeat IPC: 3.517 cumulative IPC: 3.497 (Simulation time: 00 hr 02 min 45 sec)
Heartbeat CPU 0 instructions: 40000007 cycles: 11422002 heartbeat IPC: 3.516 cumulative IPC: 3.502 (Simulation time: 00 hr 03 min 40 sec)
Heartbeat CPU 0 instructions: 50000010 cycles: 14254239 heartbeat IPC: 3.531 cumulative IPC: 3.508 (Simulation time: 00 hr 04 min 35 sec)
Heartbeat CPU 0 instructions: 60000010 cycles: 17102460 heartbeat IPC: 3.511 cumulative IPC: 3.508 (Simulation time: 00 hr 05 min 31 sec)
Heartbeat CPU 0 instructions: 70000013 cycles: 19942166 heartbeat IPC: 3.521 cumulative IPC: 3.51 (Simulation time: 00 hr 06 min 25 sec)
Heartbeat CPU 0 instructions: 80000015 cycles: 22786818 heartbeat IPC: 3.515 cumulative IPC: 3.511 (Simulation time: 00 hr 07 min 20 sec)
Heartbeat CPU 0 instructions: 90000019 cycles: 25624043 heartbeat IPC: 3.525 cumulative IPC: 3.512 (Simulation time: 00 hr 08 min 14 sec)
Heartbeat CPU 0 instructions: 100000019 cycles: 28429547 heartbeat IPC: 3.564 cumulative IPC: 3.517 (Simulation time: 00 hr 09 min 08 sec)
Heartbeat CPU 0 instructions: 110000022 cycles: 31234964 heartbeat IPC: 3.565 cumulative IPC: 3.522 (Simulation time: 00 hr 10 min 03 sec)
Heartbeat CPU 0 instructions: 120000026 cycles: 34038124 heartbeat IPC: 3.567 cumulative IPC: 3.525 (Simulation time: 00 hr 10 min 57 sec)
Heartbeat CPU 0 instructions: 130000029 cycles: 36839273 heartbeat IPC: 3.57 cumulative IPC: 3.529 (Simulation time: 00 hr 11 min 51 sec)
Heartbeat CPU 0 instructions: 140000030 cycles: 39641330 heartbeat IPC: 3.569 cumulative IPC: 3.532 (Simulation time: 00 hr 12 min 45 sec)
Heartbeat CPU 0 instructions: 150000030 cycles: 42441114 heartbeat IPC: 3.572 cumulative IPC: 3.534 (Simulation time: 00 hr 13 min 39 sec)
Heartbeat CPU 0 instructions: 160000032 cycles: 45232510 heartbeat IPC: 3.582 cumulative IPC: 3.537 (Simulation time: 00 hr 14 min 33 sec)
Heartbeat CPU 0 instructions: 170000035 cycles: 48036850 heartbeat IPC: 3.566 cumulative IPC: 3.539 (Simulation time: 00 hr 15 min 28 sec)
Heartbeat CPU 0 instructions: 180000039 cycles: 50826264 heartbeat IPC: 3.585 cumulative IPC: 3.541 (Simulation time: 00 hr 16 min 22 sec)
Heartbeat CPU 0 instructions: 190000043 cycles: 53630933 heartbeat IPC: 3.565 cumulative IPC: 3.543 (Simulation time: 00 hr 17 min 16 sec)
Warmup finished CPU 0 instructions: 200000001 cycles: 56436771 cumulative IPC: 3.544 (Simulation time: 00 hr 18 min 11 sec)
Warmup complete CPU 0 instructions: 200000001 cycles: 56436771 cumulative IPC: 3.544 (Simulation time: 00 hr 18 min 11 sec)
Heartbeat CPU 0 instructions: 200000043 cycles: 56436806 heartbeat IPC: 3.564 cumulative IPC: 1.2 (Simulation time: 00 hr 18 min 11 sec)
Heartbeat CPU 0 instructions: 210000045 cycles: 77162494 heartbeat IPC: 0.4825 cumulative IPC: 0.4825 (Simulation time: 00 hr 20 min 55 sec)
Heartbeat CPU 0 instructions: 220000045 cycles: 97142159 heartbeat IPC: 0.5005 cumulative IPC: 0.4913 (Simulation time: 00 hr 23 min 35 sec)
Heartbeat CPU 0 instructions: 230000047 cycles: 118431098 heartbeat IPC: 0.4697 cumulative IPC: 0.4839 (Simulation time: 00 hr 26 min 25 sec)
Heartbeat CPU 0 instructions: 240000050 cycles: 137673553 heartbeat IPC: 0.5197 cumulative IPC: 0.4924 (Simulation time: 00 hr 29 min 00 sec)
Heartbeat CPU 0 instructions: 250000050 cycles: 157567763 heartbeat IPC: 0.5027 cumulative IPC: 0.4944 (Simulation time: 00 hr 31 min 41 sec)
Heartbeat CPU 0 instructions: 260000053 cycles: 177512226 heartbeat IPC: 0.5014 cumulative IPC: 0.4956 (Simulation time: 00 hr 34 min 20 sec)
Heartbeat CPU 0 instructions: 270000056 cycles: 197470245 heartbeat IPC: 0.5011 cumulative IPC: 0.4963 (Simulation time: 00 hr 37 min 00 sec)
Heartbeat CPU 0 instructions: 280000056 cycles: 217357636 heartbeat IPC: 0.5028 cumulative IPC: 0.4971 (Simulation time: 00 hr 39 min 38 sec)
Heartbeat CPU 0 instructions: 290000056 cycles: 236474581 heartbeat IPC: 0.5231 cumulative IPC: 0.4999 (Simulation time: 00 hr 42 min 12 sec)
Heartbeat CPU 0 instructions: 300000057 cycles: 256091553 heartbeat IPC: 0.5098 cumulative IPC: 0.5009 (Simulation time: 00 hr 44 min 55 sec)
Heartbeat CPU 0 instructions: 310000059 cycles: 273866857 heartbeat IPC: 0.5626 cumulative IPC: 0.5059 (Simulation time: 00 hr 47 min 24 sec)
Heartbeat CPU 0 instructions: 320000063 cycles: 292758827 heartbeat IPC: 0.5293 cumulative IPC: 0.5078 (Simulation time: 00 hr 50 min 02 sec)
Heartbeat CPU 0 instructions: 330000065 cycles: 311380092 heartbeat IPC: 0.537 cumulative IPC: 0.5099 (Simulation time: 00 hr 52 min 37 sec)
Heartbeat CPU 0 instructions: 340000066 cycles: 329920552 heartbeat IPC: 0.5394 cumulative IPC: 0.5119 (Simulation time: 00 hr 55 min 13 sec)
Heartbeat CPU 0 instructions: 350000069 cycles: 348506895 heartbeat IPC: 0.538 cumulative IPC: 0.5136 (Simulation time: 00 hr 57 min 48 sec)
Heartbeat CPU 0 instructions: 360000069 cycles: 366734744 heartbeat IPC: 0.5486 cumulative IPC: 0.5156 (Simulation time: 01 hr 00 min 21 sec)
Heartbeat CPU 0 instructions: 370000071 cycles: 384923013 heartbeat IPC: 0.5498 cumulative IPC: 0.5175 (Simulation time: 01 hr 02 min 53 sec)
Heartbeat CPU 0 instructions: 380000073 cycles: 403451562 heartbeat IPC: 0.5397 cumulative IPC: 0.5187 (Simulation time: 01 hr 05 min 23 sec)
Heartbeat CPU 0 instructions: 390000077 cycles: 421937401 heartbeat IPC: 0.541 cumulative IPC: 0.5198 (Simulation time: 01 hr 07 min 57 sec)
Heartbeat CPU 0 instructions: 400000077 cycles: 440533006 heartbeat IPC: 0.5378 cumulative IPC: 0.5207 (Simulation time: 01 hr 10 min 31 sec)
Heartbeat CPU 0 instructions: 410000081 cycles: 459150745 heartbeat IPC: 0.5371 cumulative IPC: 0.5215 (Simulation time: 01 hr 13 min 02 sec)
Heartbeat CPU 0 instructions: 420000081 cycles: 477768671 heartbeat IPC: 0.5371 cumulative IPC: 0.5222 (Simulation time: 01 hr 15 min 32 sec)
Heartbeat CPU 0 instructions: 430000081 cycles: 496393926 heartbeat IPC: 0.5369 cumulative IPC: 0.5228 (Simulation time: 01 hr 18 min 02 sec)
Heartbeat CPU 0 instructions: 440000081 cycles: 514938839 heartbeat IPC: 0.5392 cumulative IPC: 0.5234 (Simulation time: 01 hr 20 min 33 sec)
Heartbeat CPU 0 instructions: 450000082 cycles: 533980175 heartbeat IPC: 0.5252 cumulative IPC: 0.5235 (Simulation time: 01 hr 23 min 08 sec)
Heartbeat CPU 0 instructions: 460000084 cycles: 553331642 heartbeat IPC: 0.5168 cumulative IPC: 0.5232 (Simulation time: 01 hr 25 min 43 sec)
Heartbeat CPU 0 instructions: 470000085 cycles: 573504642 heartbeat IPC: 0.4957 cumulative IPC: 0.5222 (Simulation time: 01 hr 28 min 24 sec)
Heartbeat CPU 0 instructions: 480000085 cycles: 593206936 heartbeat IPC: 0.5076 cumulative IPC: 0.5216 (Simulation time: 01 hr 31 min 01 sec)
Heartbeat CPU 0 instructions: 490000086 cycles: 612912557 heartbeat IPC: 0.5075 cumulative IPC: 0.5211 (Simulation time: 01 hr 33 min 38 sec)
Heartbeat CPU 0 instructions: 500000089 cycles: 633383112 heartbeat IPC: 0.4885 cumulative IPC: 0.52 (Simulation time: 01 hr 36 min 20 sec)
Heartbeat CPU 0 instructions: 510000091 cycles: 653055215 heartbeat IPC: 0.5083 cumulative IPC: 0.5196 (Simulation time: 01 hr 38 min 56 sec)
Heartbeat CPU 0 instructions: 520000092 cycles: 672780986 heartbeat IPC: 0.507 cumulative IPC: 0.5192 (Simulation time: 01 hr 41 min 37 sec)
Heartbeat CPU 0 instructions: 530000092 cycles: 693287575 heartbeat IPC: 0.4876 cumulative IPC: 0.5182 (Simulation time: 01 hr 44 min 22 sec)
Heartbeat CPU 0 instructions: 540000092 cycles: 713116784 heartbeat IPC: 0.5043 cumulative IPC: 0.5178 (Simulation time: 01 hr 47 min 03 sec)
Heartbeat CPU 0 instructions: 550000093 cycles: 733765920 heartbeat IPC: 0.4843 cumulative IPC: 0.5167 (Simulation time: 01 hr 49 min 49 sec)
Heartbeat CPU 0 instructions: 560000097 cycles: 754342825 heartbeat IPC: 0.486 cumulative IPC: 0.5158 (Simulation time: 01 hr 52 min 36 sec)
Heartbeat CPU 0 instructions: 570000097 cycles: 784255147 heartbeat IPC: 0.3343 cumulative IPC: 0.5084 (Simulation time: 01 hr 56 min 56 sec)
Heartbeat CPU 0 instructions: 580000101 cycles: 807026468 heartbeat IPC: 0.4391 cumulative IPC: 0.5063 (Simulation time: 01 hr 59 min 58 sec)
Heartbeat CPU 0 instructions: 590000101 cycles: 830604693 heartbeat IPC: 0.4241 cumulative IPC: 0.5038 (Simulation time: 02 hr 03 min 02 sec)
Heartbeat CPU 0 instructions: 600000102 cycles: 853851433 heartbeat IPC: 0.4302 cumulative IPC: 0.5016 (Simulation time: 02 hr 06 min 03 sec)
Heartbeat CPU 0 instructions: 610000103 cycles: 877356288 heartbeat IPC: 0.4254 cumulative IPC: 0.4994 (Simulation time: 02 hr 09 min 07 sec)
Heartbeat CPU 0 instructions: 620000107 cycles: 900077456 heartbeat IPC: 0.4401 cumulative IPC: 0.4978 (Simulation time: 02 hr 12 min 04 sec)
Heartbeat CPU 0 instructions: 630000107 cycles: 923603194 heartbeat IPC: 0.4251 cumulative IPC: 0.4959 (Simulation time: 02 hr 15 min 08 sec)
Heartbeat CPU 0 instructions: 640000107 cycles: 946956019 heartbeat IPC: 0.4282 cumulative IPC: 0.4941 (Simulation time: 02 hr 18 min 10 sec)
Heartbeat CPU 0 instructions: 650000107 cycles: 969682589 heartbeat IPC: 0.44 cumulative IPC: 0.4927 (Simulation time: 02 hr 21 min 09 sec)
Heartbeat CPU 0 instructions: 660000107 cycles: 993019929 heartbeat IPC: 0.4285 cumulative IPC: 0.4911 (Simulation time: 02 hr 24 min 11 sec)
Heartbeat CPU 0 instructions: 670000109 cycles: 1016407996 heartbeat IPC: 0.4276 cumulative IPC: 0.4896 (Simulation time: 02 hr 27 min 11 sec)
Heartbeat CPU 0 instructions: 680000111 cycles: 1039797733 heartbeat IPC: 0.4275 cumulative IPC: 0.4881 (Simulation time: 02 hr 30 min 10 sec)
Heartbeat CPU 0 instructions: 690000111 cycles: 1062373807 heartbeat IPC: 0.4429 cumulative IPC: 0.4871 (Simulation time: 02 hr 33 min 04 sec)
Heartbeat CPU 0 instructions: 700000111 cycles: 1085932214 heartbeat IPC: 0.4245 cumulative IPC: 0.4857 (Simulation time: 02 hr 36 min 05 sec)
Heartbeat CPU 0 instructions: 710000115 cycles: 1109417102 heartbeat IPC: 0.4258 cumulative IPC: 0.4843 (Simulation time: 02 hr 39 min 05 sec)
Heartbeat CPU 0 instructions: 720000116 cycles: 1133267578 heartbeat IPC: 0.4193 cumulative IPC: 0.4829 (Simulation time: 02 hr 42 min 07 sec)
Heartbeat CPU 0 instructions: 730000116 cycles: 1157400412 heartbeat IPC: 0.4144 cumulative IPC: 0.4814 (Simulation time: 02 hr 45 min 11 sec)
Heartbeat CPU 0 instructions: 740000116 cycles: 1181420423 heartbeat IPC: 0.4163 cumulative IPC: 0.48 (Simulation time: 02 hr 48 min 14 sec)
Heartbeat CPU 0 instructions: 750000116 cycles: 1205331278 heartbeat IPC: 0.4182 cumulative IPC: 0.4787 (Simulation time: 02 hr 51 min 16 sec)
Heartbeat CPU 0 instructions: 760000116 cycles: 1229686649 heartbeat IPC: 0.4106 cumulative IPC: 0.4773 (Simulation time: 02 hr 54 min 21 sec)
Heartbeat CPU 0 instructions: 770000116 cycles: 1254146416 heartbeat IPC: 0.4088 cumulative IPC: 0.4759 (Simulation time: 02 hr 57 min 26 sec)
Heartbeat CPU 0 instructions: 780000117 cycles: 1278571347 heartbeat IPC: 0.4094 cumulative IPC: 0.4746 (Simulation time: 03 hr 00 min 31 sec)
Heartbeat CPU 0 instructions: 790000119 cycles: 1303029094 heartbeat IPC: 0.4089 cumulative IPC: 0.4733 (Simulation time: 03 hr 03 min 36 sec)
Heartbeat CPU 0 instructions: 800000120 cycles: 1332088211 heartbeat IPC: 0.3441 cumulative IPC: 0.4703 (Simulation time: 03 hr 07 min 10 sec)
Heartbeat CPU 0 instructions: 810000121 cycles: 1360985253 heartbeat IPC: 0.3461 cumulative IPC: 0.4676 (Simulation time: 03 hr 10 min 43 sec)
Heartbeat CPU 0 instructions: 820000121 cycles: 1390184569 heartbeat IPC: 0.3425 cumulative IPC: 0.4649 (Simulation time: 03 hr 14 min 18 sec)
Heartbeat CPU 0 instructions: 830000124 cycles: 1421658343 heartbeat IPC: 0.3177 cumulative IPC: 0.4615 (Simulation time: 03 hr 18 min 06 sec)
Heartbeat CPU 0 instructions: 840000125 cycles: 1452213814 heartbeat IPC: 0.3273 cumulative IPC: 0.4585 (Simulation time: 03 hr 21 min 47 sec)
Heartbeat CPU 0 instructions: 850000126 cycles: 1485748978 heartbeat IPC: 0.2982 cumulative IPC: 0.4548 (Simulation time: 03 hr 25 min 48 sec)
Heartbeat CPU 0 instructions: 860000126 cycles: 1518793866 heartbeat IPC: 0.3026 cumulative IPC: 0.4513 (Simulation time: 03 hr 29 min 45 sec)
Heartbeat CPU 0 instructions: 870000126 cycles: 1552019340 heartbeat IPC: 0.301 cumulative IPC: 0.448 (Simulation time: 03 hr 33 min 43 sec)
Heartbeat CPU 0 instructions: 880000126 cycles: 1585317509 heartbeat IPC: 0.3003 cumulative IPC: 0.4448 (Simulation time: 03 hr 37 min 42 sec)
Heartbeat CPU 0 instructions: 890000130 cycles: 1619442389 heartbeat IPC: 0.293 cumulative IPC: 0.4415 (Simulation time: 03 hr 41 min 46 sec)
Heartbeat CPU 0 instructions: 900000130 cycles: 1653768081 heartbeat IPC: 0.2913 cumulative IPC: 0.4382 (Simulation time: 03 hr 45 min 51 sec)
Heartbeat CPU 0 instructions: 910000132 cycles: 1687789838 heartbeat IPC: 0.2939 cumulative IPC: 0.4352 (Simulation time: 03 hr 49 min 54 sec)
Heartbeat CPU 0 instructions: 920000133 cycles: 1722628789 heartbeat IPC: 0.287 cumulative IPC: 0.4321 (Simulation time: 03 hr 54 min 02 sec)
Heartbeat CPU 0 instructions: 930000133 cycles: 1757004874 heartbeat IPC: 0.2909 cumulative IPC: 0.4293 (Simulation time: 03 hr 58 min 08 sec)
Heartbeat CPU 0 instructions: 940000137 cycles: 1791757042 heartbeat IPC: 0.2878 cumulative IPC: 0.4264 (Simulation time: 04 hr 02 min 16 sec)
Heartbeat CPU 0 instructions: 950000140 cycles: 1826758000 heartbeat IPC: 0.2857 cumulative IPC: 0.4237 (Simulation time: 04 hr 06 min 25 sec)
Heartbeat CPU 0 instructions: 960000142 cycles: 1861662779 heartbeat IPC: 0.2865 cumulative IPC: 0.421 (Simulation time: 04 hr 10 min 33 sec)
Heartbeat CPU 0 instructions: 970000142 cycles: 1896986145 heartbeat IPC: 0.2831 cumulative IPC: 0.4184 (Simulation time: 04 hr 14 min 44 sec)
Heartbeat CPU 0 instructions: 980000146 cycles: 1931312268 heartbeat IPC: 0.2913 cumulative IPC: 0.416 (Simulation time: 04 hr 18 min 49 sec)
Heartbeat CPU 0 instructions: 990000147 cycles: 1964646662 heartbeat IPC: 0.3 cumulative IPC: 0.414 (Simulation time: 04 hr 22 min 48 sec)
Heartbeat CPU 0 instructions: 1000000151 cycles: 1998054536 heartbeat IPC: 0.2993 cumulative IPC: 0.412 (Simulation time: 04 hr 26 min 47 sec)
Heartbeat CPU 0 instructions: 1010000151 cycles: 2031993301 heartbeat IPC: 0.2946 cumulative IPC: 0.41 (Simulation time: 04 hr 30 min 49 sec)
Heartbeat CPU 0 instructions: 1020000155 cycles: 2065672531 heartbeat IPC: 0.2969 cumulative IPC: 0.4081 (Simulation time: 04 hr 34 min 50 sec)
Heartbeat CPU 0 instructions: 1030000159 cycles: 2096610551 heartbeat IPC: 0.3232 cumulative IPC: 0.4068 (Simulation time: 04 hr 38 min 34 sec)
Heartbeat CPU 0 instructions: 1040000160 cycles: 2128044135 heartbeat IPC: 0.3181 cumulative IPC: 0.4055 (Simulation time: 04 hr 42 min 21 sec)
Heartbeat CPU 0 instructions: 1050000162 cycles: 2158918343 heartbeat IPC: 0.3239 cumulative IPC: 0.4043 (Simulation time: 04 hr 46 min 05 sec)
Heartbeat CPU 0 instructions: 1060000162 cycles: 2189539582 heartbeat IPC: 0.3266 cumulative IPC: 0.4032 (Simulation time: 04 hr 49 min 48 sec)
Heartbeat CPU 0 instructions: 1070000166 cycles: 2219602037 heartbeat IPC: 0.3326 cumulative IPC: 0.4022 (Simulation time: 04 hr 53 min 26 sec)
Heartbeat CPU 0 instructions: 1080000169 cycles: 2249517841 heartbeat IPC: 0.3343 cumulative IPC: 0.4013 (Simulation time: 04 hr 57 min 04 sec)
Heartbeat CPU 0 instructions: 1090000169 cycles: 2280442549 heartbeat IPC: 0.3234 cumulative IPC: 0.4002 (Simulation time: 05 hr 00 min 49 sec)
Heartbeat CPU 0 instructions: 1100000170 cycles: 2310714830 heartbeat IPC: 0.3303 cumulative IPC: 0.3992 (Simulation time: 05 hr 04 min 28 sec)
Heartbeat CPU 0 instructions: 1110000171 cycles: 2341916886 heartbeat IPC: 0.3205 cumulative IPC: 0.3982 (Simulation time: 05 hr 08 min 13 sec)
Heartbeat CPU 0 instructions: 1120000174 cycles: 2372803096 heartbeat IPC: 0.3238 cumulative IPC: 0.3972 (Simulation time: 05 hr 11 min 57 sec)
Heartbeat CPU 0 instructions: 1130000175 cycles: 2403219260 heartbeat IPC: 0.3288 cumulative IPC: 0.3963 (Simulation time: 05 hr 15 min 38 sec)
Heartbeat CPU 0 instructions: 1140000175 cycles: 2433212142 heartbeat IPC: 0.3334 cumulative IPC: 0.3955 (Simulation time: 05 hr 19 min 16 sec)
Heartbeat CPU 0 instructions: 1150000175 cycles: 2464639322 heartbeat IPC: 0.3182 cumulative IPC: 0.3945 (Simulation time: 05 hr 23 min 04 sec)
Heartbeat CPU 0 instructions: 1160000179 cycles: 2494654223 heartbeat IPC: 0.3332 cumulative IPC: 0.3937 (Simulation time: 05 hr 26 min 41 sec)
Heartbeat CPU 0 instructions: 1170000181 cycles: 2525590924 heartbeat IPC: 0.3232 cumulative IPC: 0.3928 (Simulation time: 05 hr 30 min 25 sec)
Heartbeat CPU 0 instructions: 1180000184 cycles: 2555841472 heartbeat IPC: 0.3306 cumulative IPC: 0.3921 (Simulation time: 05 hr 34 min 04 sec)
Heartbeat CPU 0 instructions: 1190000185 cycles: 2587754020 heartbeat IPC: 0.3134 cumulative IPC: 0.3911 (Simulation time: 05 hr 37 min 53 sec)
Simulation finished CPU 0 instructions: 1000000002 cycles: 2563479831 cumulative IPC: 0.3901 (Simulation time: 05 hr 41 min 44 sec)
Simulation complete CPU 0 instructions: 1000000002 cycles: 2563479831 cumulative IPC: 0.3901 (Simulation time: 05 hr 41 min 44 sec)

ChampSim completed all CPUs

=== Simulation ===
CPU 0 runs /home/grads/r/raveena_manasi/ECEN_676/ChampSim/dpc3_traces/605.mcf_s-665B.champsimtrace.xz

Region of Interest Statistics

CPU 0 cumulative IPC: 0.3901 instructions: 1000000002 cycles: 2563479831
CPU 0 Branch Prediction Accuracy: 88.98% MPKI: 27.78 Average ROB Occupancy at Mispredict: 16.06
Branch type MPKI
BRANCH_DIRECT_JUMP: 0.2626
BRANCH_INDIRECT: 0
BRANCH_CONDITIONAL: 27.52
BRANCH_DIRECT_CALL: 0
BRANCH_INDIRECT_CALL: 2.9e-05
BRANCH_RETURN: 0

cpu0->cpu0_STLB TOTAL        ACCESS:   18812517 HIT:   18538941 MISS:     273576 MSHR_MERGE:          0
cpu0->cpu0_STLB LOAD         ACCESS:   18812517 HIT:   18538941 MISS:     273576 MSHR_MERGE:          0
cpu0->cpu0_STLB RFO          ACCESS:          0 HIT:          0 MISS:          0 MSHR_MERGE:          0
cpu0->cpu0_STLB PREFETCH     ACCESS:          0 HIT:          0 MISS:          0 MSHR_MERGE:          0
cpu0->cpu0_STLB WRITE        ACCESS:          0 HIT:          0 MISS:          0 MSHR_MERGE:          0
cpu0->cpu0_STLB TRANSLATION  ACCESS:          0 HIT:          0 MISS:          0 MSHR_MERGE:          0
cpu0->cpu0_STLB PREFETCH REQUESTED:          0 ISSUED:          0 USEFUL:          0 USELESS:          0
cpu0->cpu0_STLB AVERAGE MISS LATENCY: 157.9 cycles
cpu0->cpu0_L2C TOTAL        ACCESS:   84078440 HIT:   29729813 MISS:   54348627 MSHR_MERGE:   18651580
cpu0->cpu0_L2C LOAD         ACCESS:   37540203 HIT:   12831386 MISS:   24708817 MSHR_MERGE:    1256171
cpu0->cpu0_L2C RFO          ACCESS:    3757363 HIT:    2028037 MISS:    1729326 MSHR_MERGE:          0
cpu0->cpu0_L2C PREFETCH     ACCESS:   36999631 HIT:    9215347 MISS:   27784284 MSHR_MERGE:   17395409
cpu0->cpu0_L2C WRITE        ACCESS:    5633522 HIT:    5630040 MISS:       3482 MSHR_MERGE:          0
cpu0->cpu0_L2C TRANSLATION  ACCESS:     147721 HIT:      25003 MISS:     122718 MSHR_MERGE:          0
cpu0->cpu0_L2C PREFETCH REQUESTED:   36999631 ISSUED:   36999631 USEFUL:    2920267 USELESS:     162523
cpu0->cpu0_L2C AVERAGE MISS LATENCY: 64.67 cycles
cpu0->cpu0_L1I TOTAL        ACCESS:    5295229 HIT:    5295229 MISS:          0 MSHR_MERGE:          0
cpu0->cpu0_L1I LOAD         ACCESS:    5295229 HIT:    5295229 MISS:          0 MSHR_MERGE:          0
cpu0->cpu0_L1I RFO          ACCESS:          0 HIT:          0 MISS:          0 MSHR_MERGE:          0
cpu0->cpu0_L1I PREFETCH     ACCESS:          0 HIT:          0 MISS:          0 MSHR_MERGE:          0
cpu0->cpu0_L1I WRITE        ACCESS:          0 HIT:          0 MISS:          0 MSHR_MERGE:          0
cpu0->cpu0_L1I TRANSLATION  ACCESS:          0 HIT:          0 MISS:          0 MSHR_MERGE:          0
cpu0->cpu0_L1I PREFETCH REQUESTED:          0 ISSUED:          0 USEFUL:          0 USELESS:          0
cpu0->cpu0_L1I AVERAGE MISS LATENCY: - cycles
cpu0->cpu0_L1D TOTAL        ACCESS:  398882113 HIT:  340852485 MISS:   58029628 MSHR_MERGE:   16584303
cpu0->cpu0_L1D LOAD         ACCESS:  283293095 HIT:  235538968 MISS:   47754127 MSHR_MERGE:   10213893
cpu0->cpu0_L1D RFO          ACCESS:          0 HIT:          0 MISS:          0 MSHR_MERGE:          0
cpu0->cpu0_L1D PREFETCH     ACCESS:          0 HIT:          0 MISS:          0 MSHR_MERGE:          0
cpu0->cpu0_L1D WRITE        ACCESS:  115313795 HIT:  105186020 MISS:   10127775 MSHR_MERGE:    6370405
cpu0->cpu0_L1D TRANSLATION  ACCESS:     275223 HIT:     127497 MISS:     147726 MSHR_MERGE:          5
cpu0->cpu0_L1D PREFETCH REQUESTED:          0 ISSUED:          0 USEFUL:          0 USELESS:          0
cpu0->cpu0_L1D AVERAGE MISS LATENCY: 50.12 cycles
cpu0->cpu0_ITLB TOTAL        ACCESS:    4992176 HIT:    4992176 MISS:          0 MSHR_MERGE:          0
cpu0->cpu0_ITLB LOAD         ACCESS:    4992176 HIT:    4992176 MISS:          0 MSHR_MERGE:          0
cpu0->cpu0_ITLB RFO          ACCESS:          0 HIT:          0 MISS:          0 MSHR_MERGE:          0
cpu0->cpu0_ITLB PREFETCH     ACCESS:          0 HIT:          0 MISS:          0 MSHR_MERGE:          0
cpu0->cpu0_ITLB WRITE        ACCESS:          0 HIT:          0 MISS:          0 MSHR_MERGE:          0
cpu0->cpu0_ITLB TRANSLATION  ACCESS:          0 HIT:          0 MISS:          0 MSHR_MERGE:          0
cpu0->cpu0_ITLB PREFETCH REQUESTED:          0 ISSUED:          0 USEFUL:          0 USELESS:          0
cpu0->cpu0_ITLB AVERAGE MISS LATENCY: - cycles
cpu0->cpu0_DTLB TOTAL        ACCESS:  382439292 HIT:  357277768 MISS:   25161524 MSHR_MERGE:    6349007
cpu0->cpu0_DTLB LOAD         ACCESS:  382439292 HIT:  357277768 MISS:   25161524 MSHR_MERGE:    6349007
cpu0->cpu0_DTLB RFO          ACCESS:          0 HIT:          0 MISS:          0 MSHR_MERGE:          0
cpu0->cpu0_DTLB PREFETCH     ACCESS:          0 HIT:          0 MISS:          0 MSHR_MERGE:          0
cpu0->cpu0_DTLB WRITE        ACCESS:          0 HIT:          0 MISS:          0 MSHR_MERGE:          0
cpu0->cpu0_DTLB TRANSLATION  ACCESS:          0 HIT:          0 MISS:          0 MSHR_MERGE:          0
cpu0->cpu0_DTLB PREFETCH REQUESTED:          0 ISSUED:          0 USEFUL:          0 USELESS:          0
cpu0->cpu0_DTLB AVERAGE MISS LATENCY: 7.311 cycles
cpu0->LLC TOTAL        ACCESS:   38867983 HIT:   23143350 MISS:   15724633 MSHR_MERGE:    2042502
cpu0->LLC LOAD         ACCESS:   23452645 HIT:   16481553 MISS:    6971092 MSHR_MERGE:    1531692
cpu0->LLC RFO          ACCESS:    1729321 HIT:    1705643 MISS:      23678 MSHR_MERGE:          5
cpu0->LLC PREFETCH     ACCESS:   10388867 HIT:    1740689 MISS:    8648178 MSHR_MERGE:     510805
cpu0->LLC WRITE        ACCESS:    3174432 HIT:    3139331 MISS:      35101 MSHR_MERGE:          0
cpu0->LLC TRANSLATION  ACCESS:     122718 HIT:      76134 MISS:      46584 MSHR_MERGE:          0
cpu0->LLC PREFETCH REQUESTED:          0 ISSUED:          0 USEFUL:          0 USELESS:          0
cpu0->LLC AVERAGE MISS LATENCY: 170.4 cycles

DRAM Statistics

Channel 0 RQ ROW_BUFFER_HIT:    1456882
  ROW_BUFFER_MISS:   12189352
  AVG DBUS CONGESTED CYCLE: 20.32
Channel 0 WQ ROW_BUFFER_HIT:      56331
  ROW_BUFFER_MISS:     139566
  FULL:          0
Channel 0 REFRESHES ISSUED:     213623
