[VMEM] WARNING: physical memory size is smaller than virtual memory size.
WARNING: option --warmup_instructions is deprecated. Use --warmup-instructions instead.
WARNING: option --simulation_instructions is deprecated. Use --simulation-instructions instead.

*** ChampSim Multicore Out-of-Order Simulator ***
Warmup Instructions: 200000000
Simulation Instructions: 1000000000
Number of CPUs: 1
Page size: 4096

Initialize SIGNATURE TABLE
ST_SET: 1
ST_WAY: 256
ST_TAG_BIT: 16

Initialize PATTERN TABLE
PT_SET: 512
PT_WAY: 4
SIG_DELTA_BIT: 7
C_SIG_BIT: 4
C_DELTA_BIT: 4

Initialize PREFETCH FILTER
FILTER_SET: 1024
Off-chip DRAM Size: 16 GiB Channels: 1 Width: 64-bit Data Rate: 3205 MT/s
Heartbeat CPU 0 instructions: 10000000 cycles: 2636766 heartbeat IPC: 3.793 cumulative IPC: 3.793 (Simulation time: 00 hr 00 min 53 sec)
Heartbeat CPU 0 instructions: 20000002 cycles: 5172594 heartbeat IPC: 3.943 cumulative IPC: 3.867 (Simulation time: 00 hr 01 min 40 sec)
Heartbeat CPU 0 instructions: 30000005 cycles: 7786526 heartbeat IPC: 3.826 cumulative IPC: 3.853 (Simulation time: 00 hr 02 min 38 sec)
Heartbeat CPU 0 instructions: 40000009 cycles: 10350441 heartbeat IPC: 3.9 cumulative IPC: 3.865 (Simulation time: 00 hr 03 min 36 sec)
Heartbeat CPU 0 instructions: 50000010 cycles: 12919820 heartbeat IPC: 3.892 cumulative IPC: 3.87 (Simulation time: 00 hr 04 min 32 sec)
Heartbeat CPU 0 instructions: 60000011 cycles: 15433479 heartbeat IPC: 3.978 cumulative IPC: 3.888 (Simulation time: 00 hr 05 min 23 sec)
Heartbeat CPU 0 instructions: 70000014 cycles: 17933485 heartbeat IPC: 4 cumulative IPC: 3.903 (Simulation time: 00 hr 06 min 14 sec)
Heartbeat CPU 0 instructions: 80000015 cycles: 20483687 heartbeat IPC: 3.921 cumulative IPC: 3.906 (Simulation time: 00 hr 07 min 12 sec)
Heartbeat CPU 0 instructions: 90000015 cycles: 23018802 heartbeat IPC: 3.945 cumulative IPC: 3.91 (Simulation time: 00 hr 08 min 08 sec)
Heartbeat CPU 0 instructions: 100000015 cycles: 25578171 heartbeat IPC: 3.907 cumulative IPC: 3.91 (Simulation time: 00 hr 09 min 06 sec)
Heartbeat CPU 0 instructions: 110000018 cycles: 28146034 heartbeat IPC: 3.894 cumulative IPC: 3.908 (Simulation time: 00 hr 10 min 04 sec)
Heartbeat CPU 0 instructions: 120000018 cycles: 30706846 heartbeat IPC: 3.905 cumulative IPC: 3.908 (Simulation time: 00 hr 11 min 02 sec)
Heartbeat CPU 0 instructions: 130000019 cycles: 33224897 heartbeat IPC: 3.971 cumulative IPC: 3.913 (Simulation time: 00 hr 11 min 53 sec)
Heartbeat CPU 0 instructions: 140000019 cycles: 35724902 heartbeat IPC: 4 cumulative IPC: 3.919 (Simulation time: 00 hr 12 min 45 sec)
Heartbeat CPU 0 instructions: 150000022 cycles: 38277907 heartbeat IPC: 3.917 cumulative IPC: 3.919 (Simulation time: 00 hr 13 min 42 sec)
Heartbeat CPU 0 instructions: 160000024 cycles: 40799631 heartbeat IPC: 3.966 cumulative IPC: 3.922 (Simulation time: 00 hr 14 min 37 sec)
Heartbeat CPU 0 instructions: 170000026 cycles: 43345429 heartbeat IPC: 3.928 cumulative IPC: 3.922 (Simulation time: 00 hr 15 min 34 sec)
Heartbeat CPU 0 instructions: 180000029 cycles: 45917453 heartbeat IPC: 3.888 cumulative IPC: 3.92 (Simulation time: 00 hr 16 min 33 sec)
Heartbeat CPU 0 instructions: 190000030 cycles: 48476032 heartbeat IPC: 3.908 cumulative IPC: 3.919 (Simulation time: 00 hr 17 min 31 sec)
Warmup finished CPU 0 instructions: 200000002 cycles: 51012287 cumulative IPC: 3.921 (Simulation time: 00 hr 18 min 26 sec)
Warmup complete CPU 0 instructions: 200000002 cycles: 51012287 cumulative IPC: 3.921 (Simulation time: 00 hr 18 min 26 sec)
Heartbeat CPU 0 instructions: 200000030 cycles: 51012294 heartbeat IPC: 3.943 cumulative IPC: 4 (Simulation time: 00 hr 18 min 26 sec)
Heartbeat CPU 0 instructions: 210000031 cycles: 59158448 heartbeat IPC: 1.228 cumulative IPC: 1.228 (Simulation time: 00 hr 20 min 09 sec)
Heartbeat CPU 0 instructions: 220000035 cycles: 70744227 heartbeat IPC: 0.8631 cumulative IPC: 1.014 (Simulation time: 00 hr 22 min 20 sec)
Heartbeat CPU 0 instructions: 230000035 cycles: 79960057 heartbeat IPC: 1.085 cumulative IPC: 1.036 (Simulation time: 00 hr 24 min 07 sec)
Heartbeat CPU 0 instructions: 240000036 cycles: 88553646 heartbeat IPC: 1.164 cumulative IPC: 1.065 (Simulation time: 00 hr 25 min 51 sec)
Heartbeat CPU 0 instructions: 250000038 cycles: 96775572 heartbeat IPC: 1.216 cumulative IPC: 1.093 (Simulation time: 00 hr 27 min 31 sec)
Heartbeat CPU 0 instructions: 260000038 cycles: 104576229 heartbeat IPC: 1.282 cumulative IPC: 1.12 (Simulation time: 00 hr 29 min 03 sec)
Heartbeat CPU 0 instructions: 270000039 cycles: 111520499 heartbeat IPC: 1.44 cumulative IPC: 1.157 (Simulation time: 00 hr 30 min 27 sec)
Heartbeat CPU 0 instructions: 280000039 cycles: 118983187 heartbeat IPC: 1.34 cumulative IPC: 1.177 (Simulation time: 00 hr 31 min 53 sec)
Heartbeat CPU 0 instructions: 290000040 cycles: 128339995 heartbeat IPC: 1.069 cumulative IPC: 1.164 (Simulation time: 00 hr 33 min 36 sec)
Heartbeat CPU 0 instructions: 300000043 cycles: 140687502 heartbeat IPC: 0.8099 cumulative IPC: 1.115 (Simulation time: 00 hr 35 min 50 sec)
Heartbeat CPU 0 instructions: 310000044 cycles: 150040933 heartbeat IPC: 1.069 cumulative IPC: 1.111 (Simulation time: 00 hr 37 min 36 sec)
Heartbeat CPU 0 instructions: 320000045 cycles: 160682179 heartbeat IPC: 0.9397 cumulative IPC: 1.094 (Simulation time: 00 hr 39 min 41 sec)
Heartbeat CPU 0 instructions: 330000045 cycles: 169954173 heartbeat IPC: 1.079 cumulative IPC: 1.093 (Simulation time: 00 hr 41 min 23 sec)
Heartbeat CPU 0 instructions: 340000047 cycles: 178622983 heartbeat IPC: 1.154 cumulative IPC: 1.097 (Simulation time: 00 hr 42 min 59 sec)
Heartbeat CPU 0 instructions: 350000048 cycles: 186872192 heartbeat IPC: 1.212 cumulative IPC: 1.104 (Simulation time: 00 hr 44 min 33 sec)
Heartbeat CPU 0 instructions: 360000049 cycles: 194875657 heartbeat IPC: 1.249 cumulative IPC: 1.112 (Simulation time: 00 hr 46 min 05 sec)
Heartbeat CPU 0 instructions: 370000049 cycles: 202712301 heartbeat IPC: 1.276 cumulative IPC: 1.121 (Simulation time: 00 hr 47 min 37 sec)
Heartbeat CPU 0 instructions: 380000051 cycles: 209338803 heartbeat IPC: 1.509 cumulative IPC: 1.137 (Simulation time: 00 hr 48 min 58 sec)
Heartbeat CPU 0 instructions: 390000052 cycles: 215898054 heartbeat IPC: 1.525 cumulative IPC: 1.152 (Simulation time: 00 hr 50 min 18 sec)
Heartbeat CPU 0 instructions: 400000052 cycles: 223190725 heartbeat IPC: 1.371 cumulative IPC: 1.162 (Simulation time: 00 hr 51 min 42 sec)
Heartbeat CPU 0 instructions: 410000053 cycles: 231686530 heartbeat IPC: 1.177 cumulative IPC: 1.162 (Simulation time: 00 hr 53 min 14 sec)
Heartbeat CPU 0 instructions: 420000053 cycles: 243976423 heartbeat IPC: 0.8137 cumulative IPC: 1.14 (Simulation time: 00 hr 55 min 16 sec)
Heartbeat CPU 0 instructions: 430000053 cycles: 253601948 heartbeat IPC: 1.039 cumulative IPC: 1.135 (Simulation time: 00 hr 57 min 01 sec)
Heartbeat CPU 0 instructions: 440000053 cycles: 262431303 heartbeat IPC: 1.133 cumulative IPC: 1.135 (Simulation time: 00 hr 58 min 40 sec)
Heartbeat CPU 0 instructions: 450000053 cycles: 270934311 heartbeat IPC: 1.176 cumulative IPC: 1.137 (Simulation time: 01 hr 00 min 19 sec)
Heartbeat CPU 0 instructions: 460000054 cycles: 278633176 heartbeat IPC: 1.299 cumulative IPC: 1.142 (Simulation time: 01 hr 01 min 48 sec)
Heartbeat CPU 0 instructions: 470000054 cycles: 290479444 heartbeat IPC: 0.8441 cumulative IPC: 1.128 (Simulation time: 01 hr 03 min 49 sec)
Heartbeat CPU 0 instructions: 480000054 cycles: 299721545 heartbeat IPC: 1.082 cumulative IPC: 1.126 (Simulation time: 01 hr 05 min 30 sec)
Heartbeat CPU 0 instructions: 490000054 cycles: 308481278 heartbeat IPC: 1.142 cumulative IPC: 1.126 (Simulation time: 01 hr 07 min 09 sec)
Heartbeat CPU 0 instructions: 500000056 cycles: 319381367 heartbeat IPC: 0.9174 cumulative IPC: 1.118 (Simulation time: 01 hr 09 min 05 sec)
Heartbeat CPU 0 instructions: 510000058 cycles: 328995564 heartbeat IPC: 1.04 cumulative IPC: 1.115 (Simulation time: 01 hr 10 min 50 sec)
Heartbeat CPU 0 instructions: 520000059 cycles: 337874688 heartbeat IPC: 1.126 cumulative IPC: 1.116 (Simulation time: 01 hr 12 min 28 sec)
Heartbeat CPU 0 instructions: 530000060 cycles: 346287572 heartbeat IPC: 1.189 cumulative IPC: 1.118 (Simulation time: 01 hr 14 min 03 sec)
Heartbeat CPU 0 instructions: 540000062 cycles: 354375426 heartbeat IPC: 1.236 cumulative IPC: 1.121 (Simulation time: 01 hr 15 min 37 sec)
Heartbeat CPU 0 instructions: 550000062 cycles: 362244015 heartbeat IPC: 1.271 cumulative IPC: 1.125 (Simulation time: 01 hr 17 min 09 sec)
Heartbeat CPU 0 instructions: 560000066 cycles: 370001663 heartbeat IPC: 1.289 cumulative IPC: 1.129 (Simulation time: 01 hr 18 min 41 sec)
Heartbeat CPU 0 instructions: 570000069 cycles: 376311643 heartbeat IPC: 1.585 cumulative IPC: 1.137 (Simulation time: 01 hr 20 min 02 sec)
Heartbeat CPU 0 instructions: 580000069 cycles: 382585422 heartbeat IPC: 1.594 cumulative IPC: 1.146 (Simulation time: 01 hr 21 min 20 sec)
Heartbeat CPU 0 instructions: 590000070 cycles: 389569714 heartbeat IPC: 1.432 cumulative IPC: 1.152 (Simulation time: 01 hr 22 min 43 sec)
Heartbeat CPU 0 instructions: 600000070 cycles: 397294421 heartbeat IPC: 1.295 cumulative IPC: 1.155 (Simulation time: 01 hr 24 min 11 sec)
Heartbeat CPU 0 instructions: 610000070 cycles: 406742447 heartbeat IPC: 1.058 cumulative IPC: 1.153 (Simulation time: 01 hr 25 min 50 sec)
Heartbeat CPU 0 instructions: 620000072 cycles: 419100797 heartbeat IPC: 0.8092 cumulative IPC: 1.141 (Simulation time: 01 hr 27 min 52 sec)
Heartbeat CPU 0 instructions: 630000074 cycles: 429439863 heartbeat IPC: 0.9672 cumulative IPC: 1.136 (Simulation time: 01 hr 29 min 44 sec)
Heartbeat CPU 0 instructions: 640000074 cycles: 439665092 heartbeat IPC: 0.978 cumulative IPC: 1.132 (Simulation time: 01 hr 31 min 39 sec)
Heartbeat CPU 0 instructions: 650000078 cycles: 448776782 heartbeat IPC: 1.097 cumulative IPC: 1.131 (Simulation time: 01 hr 33 min 22 sec)
Heartbeat CPU 0 instructions: 660000080 cycles: 457308158 heartbeat IPC: 1.172 cumulative IPC: 1.132 (Simulation time: 01 hr 34 min 58 sec)
Heartbeat CPU 0 instructions: 670000083 cycles: 465456415 heartbeat IPC: 1.227 cumulative IPC: 1.134 (Simulation time: 01 hr 36 min 32 sec)
Heartbeat CPU 0 instructions: 680000084 cycles: 473537952 heartbeat IPC: 1.237 cumulative IPC: 1.136 (Simulation time: 01 hr 38 min 06 sec)
Heartbeat CPU 0 instructions: 690000085 cycles: 479966448 heartbeat IPC: 1.556 cumulative IPC: 1.142 (Simulation time: 01 hr 39 min 26 sec)
Heartbeat CPU 0 instructions: 700000089 cycles: 487379305 heartbeat IPC: 1.349 cumulative IPC: 1.146 (Simulation time: 01 hr 40 min 53 sec)
Heartbeat CPU 0 instructions: 710000093 cycles: 496790929 heartbeat IPC: 1.063 cumulative IPC: 1.144 (Simulation time: 01 hr 42 min 32 sec)
Heartbeat CPU 0 instructions: 720000093 cycles: 508464707 heartbeat IPC: 0.8566 cumulative IPC: 1.137 (Simulation time: 01 hr 44 min 32 sec)
Heartbeat CPU 0 instructions: 730000093 cycles: 518920895 heartbeat IPC: 0.9564 cumulative IPC: 1.133 (Simulation time: 01 hr 46 min 22 sec)
Heartbeat CPU 0 instructions: 740000093 cycles: 529083253 heartbeat IPC: 0.984 cumulative IPC: 1.13 (Simulation time: 01 hr 48 min 09 sec)
Heartbeat CPU 0 instructions: 750000093 cycles: 539986975 heartbeat IPC: 0.9171 cumulative IPC: 1.125 (Simulation time: 01 hr 50 min 01 sec)
Heartbeat CPU 0 instructions: 760000096 cycles: 550854714 heartbeat IPC: 0.9202 cumulative IPC: 1.12 (Simulation time: 01 hr 51 min 51 sec)
Heartbeat CPU 0 instructions: 770000096 cycles: 560229007 heartbeat IPC: 1.067 cumulative IPC: 1.119 (Simulation time: 01 hr 53 min 29 sec)
Heartbeat CPU 0 instructions: 780000098 cycles: 568919597 heartbeat IPC: 1.151 cumulative IPC: 1.12 (Simulation time: 01 hr 55 min 02 sec)
Heartbeat CPU 0 instructions: 790000099 cycles: 577158743 heartbeat IPC: 1.214 cumulative IPC: 1.121 (Simulation time: 01 hr 56 min 33 sec)
Heartbeat CPU 0 instructions: 800000099 cycles: 584582936 heartbeat IPC: 1.347 cumulative IPC: 1.124 (Simulation time: 01 hr 58 min 00 sec)
Heartbeat CPU 0 instructions: 810000102 cycles: 593692483 heartbeat IPC: 1.098 cumulative IPC: 1.124 (Simulation time: 01 hr 59 min 38 sec)
Heartbeat CPU 0 instructions: 820000104 cycles: 604999640 heartbeat IPC: 0.8844 cumulative IPC: 1.119 (Simulation time: 02 hr 01 min 32 sec)
Heartbeat CPU 0 instructions: 830000104 cycles: 615214050 heartbeat IPC: 0.979 cumulative IPC: 1.117 (Simulation time: 02 hr 03 min 24 sec)
Heartbeat CPU 0 instructions: 840000107 cycles: 625756460 heartbeat IPC: 0.9485 cumulative IPC: 1.114 (Simulation time: 02 hr 05 min 26 sec)
Heartbeat CPU 0 instructions: 850000110 cycles: 634845689 heartbeat IPC: 1.1 cumulative IPC: 1.113 (Simulation time: 02 hr 07 min 11 sec)
Heartbeat CPU 0 instructions: 860000110 cycles: 644952761 heartbeat IPC: 0.9894 cumulative IPC: 1.111 (Simulation time: 02 hr 09 min 10 sec)
Heartbeat CPU 0 instructions: 870000110 cycles: 654731291 heartbeat IPC: 1.023 cumulative IPC: 1.11 (Simulation time: 02 hr 10 min 59 sec)
Heartbeat CPU 0 instructions: 880000112 cycles: 663537678 heartbeat IPC: 1.136 cumulative IPC: 1.11 (Simulation time: 02 hr 12 min 33 sec)
Heartbeat CPU 0 instructions: 890000112 cycles: 672433207 heartbeat IPC: 1.124 cumulative IPC: 1.11 (Simulation time: 02 hr 14 min 11 sec)
Heartbeat CPU 0 instructions: 900000112 cycles: 684185408 heartbeat IPC: 0.8509 cumulative IPC: 1.106 (Simulation time: 02 hr 16 min 11 sec)
Heartbeat CPU 0 instructions: 910000113 cycles: 693586563 heartbeat IPC: 1.064 cumulative IPC: 1.105 (Simulation time: 02 hr 17 min 51 sec)
Heartbeat CPU 0 instructions: 920000113 cycles: 702367026 heartbeat IPC: 1.139 cumulative IPC: 1.105 (Simulation time: 02 hr 19 min 24 sec)
Heartbeat CPU 0 instructions: 930000114 cycles: 710357028 heartbeat IPC: 1.252 cumulative IPC: 1.107 (Simulation time: 02 hr 20 min 54 sec)
Heartbeat CPU 0 instructions: 940000115 cycles: 721144946 heartbeat IPC: 0.927 cumulative IPC: 1.104 (Simulation time: 02 hr 22 min 46 sec)
Heartbeat CPU 0 instructions: 950000115 cycles: 730656191 heartbeat IPC: 1.051 cumulative IPC: 1.104 (Simulation time: 02 hr 24 min 27 sec)
Heartbeat CPU 0 instructions: 960000115 cycles: 741146699 heartbeat IPC: 0.9532 cumulative IPC: 1.101 (Simulation time: 02 hr 26 min 17 sec)
Heartbeat CPU 0 instructions: 970000117 cycles: 750409946 heartbeat IPC: 1.08 cumulative IPC: 1.101 (Simulation time: 02 hr 27 min 56 sec)
Heartbeat CPU 0 instructions: 980000118 cycles: 759031577 heartbeat IPC: 1.16 cumulative IPC: 1.102 (Simulation time: 02 hr 29 min 28 sec)
Heartbeat CPU 0 instructions: 990000120 cycles: 767261472 heartbeat IPC: 1.215 cumulative IPC: 1.103 (Simulation time: 02 hr 30 min 58 sec)
Heartbeat CPU 0 instructions: 1000000123 cycles: 774624123 heartbeat IPC: 1.358 cumulative IPC: 1.106 (Simulation time: 02 hr 32 min 24 sec)
Heartbeat CPU 0 instructions: 1010000124 cycles: 782479864 heartbeat IPC: 1.273 cumulative IPC: 1.107 (Simulation time: 02 hr 33 min 55 sec)
Heartbeat CPU 0 instructions: 1020000125 cycles: 794138787 heartbeat IPC: 0.8577 cumulative IPC: 1.103 (Simulation time: 02 hr 36 min 00 sec)
Heartbeat CPU 0 instructions: 1030000125 cycles: 803759345 heartbeat IPC: 1.039 cumulative IPC: 1.103 (Simulation time: 02 hr 37 min 53 sec)
Heartbeat CPU 0 instructions: 1040000125 cycles: 812922815 heartbeat IPC: 1.091 cumulative IPC: 1.102 (Simulation time: 02 hr 39 min 40 sec)
Heartbeat CPU 0 instructions: 1050000129 cycles: 822553287 heartbeat IPC: 1.038 cumulative IPC: 1.102 (Simulation time: 02 hr 41 min 27 sec)
Heartbeat CPU 0 instructions: 1060000133 cycles: 832679681 heartbeat IPC: 0.9875 cumulative IPC: 1.1 (Simulation time: 02 hr 43 min 13 sec)
Heartbeat CPU 0 instructions: 1070000136 cycles: 841518434 heartbeat IPC: 1.131 cumulative IPC: 1.101 (Simulation time: 02 hr 44 min 52 sec)
Heartbeat CPU 0 instructions: 1080000136 cycles: 849939552 heartbeat IPC: 1.187 cumulative IPC: 1.101 (Simulation time: 02 hr 46 min 31 sec)
Heartbeat CPU 0 instructions: 1090000136 cycles: 861295627 heartbeat IPC: 0.8806 cumulative IPC: 1.098 (Simulation time: 02 hr 48 min 34 sec)
Heartbeat CPU 0 instructions: 1100000136 cycles: 870380089 heartbeat IPC: 1.101 cumulative IPC: 1.098 (Simulation time: 02 hr 50 min 15 sec)
Heartbeat CPU 0 instructions: 1110000137 cycles: 879181324 heartbeat IPC: 1.136 cumulative IPC: 1.099 (Simulation time: 02 hr 51 min 51 sec)
Heartbeat CPU 0 instructions: 1120000137 cycles: 888269047 heartbeat IPC: 1.1 cumulative IPC: 1.099 (Simulation time: 02 hr 53 min 35 sec)
Heartbeat CPU 0 instructions: 1130000137 cycles: 898972284 heartbeat IPC: 0.9343 cumulative IPC: 1.097 (Simulation time: 02 hr 55 min 30 sec)
Heartbeat CPU 0 instructions: 1140000139 cycles: 907920463 heartbeat IPC: 1.118 cumulative IPC: 1.097 (Simulation time: 02 hr 57 min 10 sec)
Heartbeat CPU 0 instructions: 1150000143 cycles: 916338201 heartbeat IPC: 1.188 cumulative IPC: 1.098 (Simulation time: 02 hr 58 min 46 sec)
Heartbeat CPU 0 instructions: 1160000145 cycles: 923887129 heartbeat IPC: 1.325 cumulative IPC: 1.1 (Simulation time: 03 hr 00 min 17 sec)
Heartbeat CPU 0 instructions: 1170000146 cycles: 932698005 heartbeat IPC: 1.135 cumulative IPC: 1.1 (Simulation time: 03 hr 01 min 55 sec)
Heartbeat CPU 0 instructions: 1180000147 cycles: 944077452 heartbeat IPC: 0.8788 cumulative IPC: 1.097 (Simulation time: 03 hr 03 min 51 sec)
Heartbeat CPU 0 instructions: 1190000147 cycles: 954459499 heartbeat IPC: 0.9632 cumulative IPC: 1.096 (Simulation time: 03 hr 05 min 42 sec)
Simulation finished CPU 0 instructions: 1000000000 cycles: 912823495 cumulative IPC: 1.096 (Simulation time: 03 hr 07 min 24 sec)
Simulation complete CPU 0 instructions: 1000000000 cycles: 912823495 cumulative IPC: 1.096 (Simulation time: 03 hr 07 min 24 sec)

ChampSim completed all CPUs

=== Simulation ===
CPU 0 runs /home/grads/b/bhavishya_k_s/ecen676/ChampSim/dpc3_traces/623.xalancbmk_s-700B.champsimtrace.xz

Region of Interest Statistics

CPU 0 cumulative IPC: 1.096 instructions: 1000000000 cycles: 912823495
CPU 0 Branch Prediction Accuracy: 97.01% MPKI: 8.588 Average ROB Occupancy at Mispredict: 30.68
Branch type MPKI
BRANCH_DIRECT_JUMP: 0.1067
BRANCH_INDIRECT: 0.3354
BRANCH_CONDITIONAL: 6.376
BRANCH_DIRECT_CALL: 0.000181
BRANCH_INDIRECT_CALL: 0.3631
BRANCH_RETURN: 1.406

cpu0->cpu0_STLB TOTAL        ACCESS:   27407485 HIT:   25866314 MISS:    1541171 MSHR_MERGE:          0
cpu0->cpu0_STLB LOAD         ACCESS:   27407485 HIT:   25866314 MISS:    1541171 MSHR_MERGE:          0
cpu0->cpu0_STLB RFO          ACCESS:          0 HIT:          0 MISS:          0 MSHR_MERGE:          0
cpu0->cpu0_STLB PREFETCH     ACCESS:          0 HIT:          0 MISS:          0 MSHR_MERGE:          0
cpu0->cpu0_STLB WRITE        ACCESS:          0 HIT:          0 MISS:          0 MSHR_MERGE:          0
cpu0->cpu0_STLB TRANSLATION  ACCESS:          0 HIT:          0 MISS:          0 MSHR_MERGE:          0
cpu0->cpu0_STLB PREFETCH REQUESTED:          0 ISSUED:          0 USEFUL:          0 USELESS:          0
cpu0->cpu0_STLB AVERAGE MISS LATENCY: 26.63 cycles
cpu0->cpu0_L2C TOTAL        ACCESS:  109819656 HIT:   80723382 MISS:   29096274 MSHR_MERGE:     441209
cpu0->cpu0_L2C LOAD         ACCESS:   47317327 HIT:   45058550 MISS:    2258777 MSHR_MERGE:      52207
cpu0->cpu0_L2C RFO          ACCESS:    1508530 HIT:     263909 MISS:    1244621 MSHR_MERGE:        228
cpu0->cpu0_L2C PREFETCH     ACCESS:   57163549 HIT:   31762247 MISS:   25401302 MSHR_MERGE:     388774
cpu0->cpu0_L2C WRITE        ACCESS:    2341146 HIT:    2341063 MISS:         83 MSHR_MERGE:          0
cpu0->cpu0_L2C TRANSLATION  ACCESS:    1489104 HIT:    1297613 MISS:     191491 MSHR_MERGE:          0
cpu0->cpu0_L2C PREFETCH REQUESTED:   57191561 ISSUED:   57163534 USEFUL:      70670 USELESS:      76752
cpu0->cpu0_L2C AVERAGE MISS LATENCY: 90.14 cycles
cpu0->cpu0_L1I TOTAL        ACCESS:  175085326 HIT:  171764909 MISS:    3320417 MSHR_MERGE:     880885
cpu0->cpu0_L1I LOAD         ACCESS:  175085326 HIT:  171764909 MISS:    3320417 MSHR_MERGE:     880885
cpu0->cpu0_L1I RFO          ACCESS:          0 HIT:          0 MISS:          0 MSHR_MERGE:          0
cpu0->cpu0_L1I PREFETCH     ACCESS:          0 HIT:          0 MISS:          0 MSHR_MERGE:          0
cpu0->cpu0_L1I WRITE        ACCESS:          0 HIT:          0 MISS:          0 MSHR_MERGE:          0
cpu0->cpu0_L1I TRANSLATION  ACCESS:          0 HIT:          0 MISS:          0 MSHR_MERGE:          0
cpu0->cpu0_L1I PREFETCH REQUESTED:          0 ISSUED:          0 USEFUL:          0 USELESS:          0
cpu0->cpu0_L1I AVERAGE MISS LATENCY: 9.299 cycles
cpu0->cpu0_L1D TOTAL        ACCESS:  283576588 HIT:  214146085 MISS:   69430503 MSHR_MERGE:   21555061
cpu0->cpu0_L1D LOAD         ACCESS:  212798262 HIT:  150634142 MISS:   62164120 MSHR_MERGE:   17286317
cpu0->cpu0_L1D RFO          ACCESS:          0 HIT:          0 MISS:          0 MSHR_MERGE:          0
cpu0->cpu0_L1D PREFETCH     ACCESS:          0 HIT:          0 MISS:          0 MSHR_MERGE:          0
cpu0->cpu0_L1D WRITE        ACCESS:   69231525 HIT:   63454308 MISS:    5777217 MSHR_MERGE:    4268682
cpu0->cpu0_L1D TRANSLATION  ACCESS:    1546801 HIT:      57635 MISS:    1489166 MSHR_MERGE:         62
cpu0->cpu0_L1D PREFETCH REQUESTED:          0 ISSUED:          0 USEFUL:          0 USELESS:          0
cpu0->cpu0_L1D AVERAGE MISS LATENCY: 15.07 cycles
cpu0->cpu0_ITLB TOTAL        ACCESS:  163738678 HIT:  162907082 MISS:     831596 MSHR_MERGE:     468275
cpu0->cpu0_ITLB LOAD         ACCESS:  163738678 HIT:  162907082 MISS:     831596 MSHR_MERGE:     468275
cpu0->cpu0_ITLB RFO          ACCESS:          0 HIT:          0 MISS:          0 MSHR_MERGE:          0
cpu0->cpu0_ITLB PREFETCH     ACCESS:          0 HIT:          0 MISS:          0 MSHR_MERGE:          0
cpu0->cpu0_ITLB WRITE        ACCESS:          0 HIT:          0 MISS:          0 MSHR_MERGE:          0
cpu0->cpu0_ITLB TRANSLATION  ACCESS:          0 HIT:          0 MISS:          0 MSHR_MERGE:          0
cpu0->cpu0_ITLB PREFETCH REQUESTED:          0 ISSUED:          0 USEFUL:          0 USELESS:          0
cpu0->cpu0_ITLB AVERAGE MISS LATENCY: 7.282 cycles
cpu0->cpu0_DTLB TOTAL        ACCESS:  272950430 HIT:  233415671 MISS:   39534759 MSHR_MERGE:   12490595
cpu0->cpu0_DTLB LOAD         ACCESS:  272950430 HIT:  233415671 MISS:   39534759 MSHR_MERGE:   12490595
cpu0->cpu0_DTLB RFO          ACCESS:          0 HIT:          0 MISS:          0 MSHR_MERGE:          0
cpu0->cpu0_DTLB PREFETCH     ACCESS:          0 HIT:          0 MISS:          0 MSHR_MERGE:          0
cpu0->cpu0_DTLB WRITE        ACCESS:          0 HIT:          0 MISS:          0 MSHR_MERGE:          0
cpu0->cpu0_DTLB TRANSLATION  ACCESS:          0 HIT:          0 MISS:          0 MSHR_MERGE:          0
cpu0->cpu0_DTLB PREFETCH REQUESTED:          0 ISSUED:          0 USEFUL:          0 USELESS:          0
cpu0->cpu0_DTLB AVERAGE MISS LATENCY: 6.544 cycles
cpu0->LLC TOTAL        ACCESS:   30179246 HIT:   28069958 MISS:    2109288 MSHR_MERGE:      17630
cpu0->LLC LOAD         ACCESS:    2206570 HIT:    1954355 MISS:     252215 MSHR_MERGE:       6531
cpu0->LLC RFO          ACCESS:    1244393 HIT:     124604 MISS:    1119789 MSHR_MERGE:       4695
cpu0->LLC PREFETCH     ACCESS:   25012295 HIT:   24358489 MISS:     653806 MSHR_MERGE:       6404
cpu0->LLC WRITE        ACCESS:    1524497 HIT:    1504193 MISS:      20304 MSHR_MERGE:          0
cpu0->LLC TRANSLATION  ACCESS:     191491 HIT:     128317 MISS:      63174 MSHR_MERGE:          0
cpu0->LLC PREFETCH REQUESTED:          0 ISSUED:          0 USEFUL:          0 USELESS:          0
cpu0->LLC AVERAGE MISS LATENCY: 189.9 cycles

DRAM Statistics

Channel 0 RQ ROW_BUFFER_HIT:     105214
  ROW_BUFFER_MISS:    1966053
  AVG DBUS CONGESTED CYCLE: 8.969
Channel 0 WQ ROW_BUFFER_HIT:     151586
  ROW_BUFFER_MISS:    1187690
  FULL:          0
Channel 0 REFRESHES ISSUED:      76068
